

         NASA-GLENN CHEMICAL EQUILIBRIUM PROGRAM CEA2, FEBRUARY 5, 2004
                   BY  BONNIE MCBRIDE AND SANFORD GORDON
      REFS: NASA RP-1311, PART I, 1994 AND NASA RP-1311, PART II, 1996

 *******************************************************************************

  
 ### CEA analysis performed on Tue 20-Aug-2019 07:57:30
  
 # Problem Type: "Assigned Temperature and Pressure"
  
 prob case=cp_80-530bar___8516 tp
  
 # Pressure (21 values):
 p,bar= 130, 150, 170, 190, 210, 230, 250, 270, 290, 310, 330, 350, 370, 390, 410
 , 430, 450, 470, 490, 510, 530
 # Temperature (21 values):
 t,k= 540, 546, 552, 558, 564, 570, 576, 582, 588, 594, 600, 606, 612, 618, 624, 
 630, 636, 642, 648, 654, 660
  
 # Oxidizer/Fuel Wt. ratio (2 values):
 o/f= 0.41, 0.42
  
 # You selected the following fuels and oxidizers:
 reac
 fuel H2O               wt%=100.0000 h,kj/mole=-292.740
 oxid CO2               wt%=100.0000 h,kj/mole=-393.500
  
 # You selected these options for output:
 # short version of output
 output short
 # Proportions of any products will be expressed as Mass Fractions.
 output massf
 # Heat will be expressed as siunits
 output siunits
 # Transport properties calculated
 output transport
  
  
 # Input prepared by this script:prepareInputFile.cgi
  
 ### IMPORTANT:  The following line is the end of your CEA input file!
 end

 SINGULAR MATRIX, ITERATION  2  VARIABLE  3(EQLBRM)

               THERMODYNAMIC EQUILIBRIUM PROPERTIES AT ASSIGNED

                           TEMPERATURE AND PRESSURE

 CASE = cp_80-530bar___

             REACTANT                    WT FRACTION      ENERGY      TEMP
                                          (SEE NOTE)     KJ/KG-MOL      K  
 FUEL        H2O                          1.0000000   -292740.000      0.000
 OXIDANT     CO2                          1.0000000   -393500.000      0.000

 O/F=    0.41000  %FUEL= 70.921986  R,EQ.RATIO= 1.000000  PHI,EQ.RATIO= 0.000000

 THERMODYNAMIC PROPERTIES

 P, BAR            130.00   130.00   130.00   130.00   130.00   130.00   130.00   130.00
 T, K              540.00   546.00   552.00   558.00   564.00   570.00   576.00   582.00
 RHO, KG/CU M    2.9486 2 2.7968 2 2.6426 2 2.4861 2 2.3276 2 2.1673 2 2.0053 2 1.8420 2
 H, KJ/KG        -12925.2 -12889.0 -12850.7 -12810.1 -12766.5 -12719.6 -12668.5 -12612.3
 U, KJ/KG        -12969.3 -12935.5 -12899.9 -12862.4 -12822.4 -12779.6 -12733.3 -12682.8
 G, KJ/KG        -16228.4 -16265.3 -16302.6 -16340.3 -16378.5 -16417.2 -16456.4 -16496.1
 S, KJ/(KG)(K)     6.1169   6.1836   6.2533   6.3266   6.4042   6.4870   6.5762   6.6733

 M, (1/n)         101.835   97.666   93.295   88.726   83.962   79.009   73.875   68.567
 MW, MOL WT        21.751   21.751   21.751   21.751   21.751   21.751   21.751   21.751
 (dLV/dLP)t      -1.48622 -1.54967 -1.62227 -1.70582 -1.80259 -1.91560 -2.04874 -2.20733
 (dLV/dLT)p        4.5954   4.9790   5.4085   5.8921   6.4402   7.0660   7.7872   8.6268
 Cp, KJ/(KG)(K)    5.8837   6.1997   6.5686   7.0036   7.5223   8.1482   8.9134   9.8632
 GAMMAs            0.8381   0.8270   0.8161   0.8056   0.7958   0.7869   0.7794   0.7738
 SON VEL,M/SEC      192.2    196.1    200.4    205.2    210.8    217.3    224.8    233.7

 TRANSPORT PROPERTIES (GASES ONLY)
   CONDUCTIVITY IN UNITS OF MILLIWATTS/(CM)(K)

 VISC,MILLIPOISE  0.27145  0.27440  0.27718  0.27975  0.28206  0.28405  0.28567  0.28684

  WITH EQUILIBRIUM REACTIONS

 Cp, KJ/(KG)(K)    1.1958   1.2161   1.2380   1.2615   1.2868   1.3142   1.3438   1.3759
 CONDUCTIVITY      0.4113   0.4196   0.4279   0.4361   0.4441   0.4520   0.4597   0.4671
 PRANDTL NUMBER    0.7892   0.7952   0.8019   0.8092   0.8172   0.8259   0.8351   0.8449

  WITH FROZEN REACTIONS

 Cp, KJ/(KG)(K)    1.1958   1.2161   1.2380   1.2615   1.2868   1.3142   1.3438   1.3759
 CONDUCTIVITY      0.4113   0.4196   0.4279   0.4361   0.4441   0.4520   0.4597   0.4671
 PRANDTL NUMBER    0.7892   0.7952   0.8019   0.8092   0.8172   0.8259   0.8351   0.8449

 MASS FRACTIONS

 *CO2             0.29078  0.29078  0.29078  0.29078  0.29078  0.29078  0.29078  0.29078
 H2O              0.05788  0.06543  0.07407  0.08401  0.09553  0.10898  0.12483  0.14371
 H2O(L)           0.65134  0.64379  0.63515  0.62521  0.61369  0.60024  0.58439  0.56551

  * THERMODYNAMIC PROPERTIES FITTED TO 20000.K

 NOTE. WEIGHT FRACTION OF FUEL IN TOTAL FUELS AND OF OXIDANT IN TOTAL OXIDANTS

 SINGULAR MATRIX, ITERATION  3  VARIABLE  3(EQLBRM)
 REMOVE  H2O(L)         

               THERMODYNAMIC EQUILIBRIUM PROPERTIES AT ASSIGNED

                           TEMPERATURE AND PRESSURE

 CASE = cp_80-530bar___

             REACTANT                    WT FRACTION      ENERGY      TEMP
                                          (SEE NOTE)     KJ/KG-MOL      K  
 FUEL        H2O                          1.0000000   -292740.000      0.000
 OXIDANT     CO2                          1.0000000   -393500.000      0.000

 O/F=    0.41000  %FUEL= 70.921986  R,EQ.RATIO= 1.000000  PHI,EQ.RATIO= 0.000000

 THERMODYNAMIC PROPERTIES

 P, BAR            130.00   130.00   130.00   130.00   130.00   130.00   130.00   130.00
 T, K              588.00   594.00   600.00   606.00   612.00   618.00   624.00   630.00
 RHO, KG/CU M    1.6778 2 1.5129 2 1.3478 2 5.6119 1 5.5569 1 5.5030 1 5.4501 1 5.3982 1
 H, KJ/KG        -12549.6 -12478.8 -12397.3 -11611.0 -11600.5 -11590.0 -11579.4 -11568.9
 U, KJ/KG        -12627.1 -12564.7 -12493.7 -11842.6 -11834.4 -11826.2 -11818.0 -11809.7
 G, KJ/KG        -16536.5 -16577.5 -16619.3 -16646.0 -16695.9 -16745.9 -16796.0 -16846.2
 S, KJ/(KG)(K)     6.7803   6.9002   7.0367   8.3087   8.3259   8.3430   8.3599   8.3768

 M, (1/n)          63.096   57.476   51.721   21.751   21.751   21.751   21.751   21.751
 MW, MOL WT        21.751   21.751   21.751   21.751   21.751   21.751   21.751   21.751
 (dLV/dLP)t      -2.39872 -2.63326 -2.92625 -1.00000 -1.00000 -1.00000 -1.00000 -1.00000
 (dLV/dLT)p        9.6166  10.8010  12.2447   1.0000   1.0000   1.0000   1.0000   1.0000
 Cp, KJ/(KG)(K)   11.0635  12.6131  14.6683   1.7463   1.7500   1.7537   1.7573   1.7610
 GAMMAs            0.7709   0.7721   0.7794   1.2802   1.2795   1.2787   1.2780   1.2773
 SON VEL,M/SEC      244.4    257.6    274.2    544.6    547.1    549.6    552.1    554.6

 TRANSPORT PROPERTIES (GASES ONLY)
   CONDUCTIVITY IN UNITS OF MILLIWATTS/(CM)(K)

 VISC,MILLIPOISE  0.28749  0.28752  0.28685  0.25825  0.26101  0.26376  0.26652  0.26927

  WITH EQUILIBRIUM REACTIONS

 Cp, KJ/(KG)(K)    1.4108   1.4488   1.4901   1.7463   1.7500   1.7537   1.7573   1.7610
 CONDUCTIVITY      0.4742   0.4810   0.4874   0.4853   0.4919   0.4986   0.5054   0.5122
 PRANDTL NUMBER    0.8553   0.8660   0.8771   0.9294   0.9285   0.9276   0.9267   0.9259

  WITH FROZEN REACTIONS

 Cp, KJ/(KG)(K)    1.4108   1.4488   1.4901   1.7463   1.7500   1.7537   1.7573   1.7610
 CONDUCTIVITY      0.4742   0.4810   0.4874   0.4853   0.4919   0.4986   0.5054   0.5122
 PRANDTL NUMBER    0.8553   0.8660   0.8771   0.9294   0.9285   0.9276   0.9267   0.9259

 MASS FRACTIONS

 *CO2             0.29078  0.29078  0.29078  0.29078  0.29078  0.29078  0.29078  0.29078
 H2O              0.16649  0.19441  0.22928  0.70922  0.70922  0.70922  0.70922  0.70922
 H2O(L)           0.54273  0.51481  0.47994  0.00000  0.00000  0.00000  0.00000  0.00000

  * THERMODYNAMIC PROPERTIES FITTED TO 20000.K

 NOTE. WEIGHT FRACTION OF FUEL IN TOTAL FUELS AND OF OXIDANT IN TOTAL OXIDANTS

 SINGULAR MATRIX, ITERATION  2  VARIABLE  3(EQLBRM)

 DERIVATIVE MATRIX SINGULAR (EQLBRM)

               THERMODYNAMIC EQUILIBRIUM PROPERTIES AT ASSIGNED

                           TEMPERATURE AND PRESSURE

 CASE = cp_80-530bar___

             REACTANT                    WT FRACTION      ENERGY      TEMP
                                          (SEE NOTE)     KJ/KG-MOL      K  
 FUEL        H2O                          1.0000000   -292740.000      0.000
 OXIDANT     CO2                          1.0000000   -393500.000      0.000

 O/F=    0.41000  %FUEL= 70.921986  R,EQ.RATIO= 1.000000  PHI,EQ.RATIO= 0.000000

 THERMODYNAMIC PROPERTIES

 P, BAR            130.00   130.00   130.00   130.00   130.00   150.00   150.00   150.00
 T, K              636.00   642.00   648.00   654.00   660.00   540.00   546.00   552.00
 RHO, KG/CU M    5.3472 1 5.2973 1 5.2482 1 5.2001 1 5.1528 1 3.6228 2 3.4635 2 3.3021 2
 H, KJ/KG        -11558.3 -11547.7 -11537.1 -11526.4 -11515.8 -12945.1 -12912.0 -12877.4
 U, KJ/KG        -11801.4 -11793.1 -11784.8 -11776.4 -11768.1 -12986.5 -12955.3 -12922.9
 G, KJ/KG        -16896.5 -16947.0 -16997.5 -17048.1 -17098.8 -16222.3 -16258.9 -16295.8
 S, KJ/(KG)(K)     8.3935   8.4101   8.4265   8.4429   8.4591   6.0688   6.1298   6.1927

 M, (1/n)          21.751   21.751   21.751   21.751   21.751  108.437  104.824  101.036
 MW, MOL WT        21.751   21.751   21.751   21.751   21.751   21.751   21.751   21.751
 (dLV/dLP)t      -1.00000 -1.00000 -1.00000 -1.00000 -1.00000 -1.39573 -1.44385 -1.00000
 (dLV/dLT)p        1.0000   1.0000   1.0000   1.0000   1.0000   3.9263   4.2130   1.0000
 Cp, KJ/(KG)(K)    1.7647   1.7683   1.7720   1.7757   1.7793   5.4054   5.6323   3.8334
 GAMMAs            1.2765   1.2758   1.2751   1.2743   1.2736   0.8496   0.8376   1.0219
 SON VEL,M/SEC      557.1    559.5    562.0    564.4    566.9    187.6    190.5    215.5

 TRANSPORT PROPERTIES (GASES ONLY)
   CONDUCTIVITY IN UNITS OF MILLIWATTS/(CM)(K)

 VISC,MILLIPOISE  0.27201  0.27475  0.27749  0.28023  0.28296  0.27077  0.27393  0.27700

  WITH EQUILIBRIUM REACTIONS

 Cp, KJ/(KG)(K)    1.7647   1.7683   1.7720   1.7757   1.7793   1.1708   1.1880   1.2063
 CONDUCTIVITY      0.5190   0.5258   0.5326   0.5395   0.5464   0.4067   0.4149   0.4232
 PRANDTL NUMBER    0.9250   0.9241   0.9232   0.9223   0.9214   0.7796   0.7843   0.7895

  WITH FROZEN REACTIONS

 Cp, KJ/(KG)(K)    1.7647   1.7683   1.7720   1.7757   1.7793   1.1708   1.1880   1.2063
 CONDUCTIVITY      0.5190   0.5258   0.5326   0.5395   0.5464   0.4067   0.4149   0.4232
 PRANDTL NUMBER    0.9250   0.9241   0.9232   0.9223   0.9214   0.7796   0.7843   0.7895

 MASS FRACTIONS

 *CO2             0.29078  0.29078  0.29078  0.29078  0.29078  0.29078  0.29078  0.29078
 H2O              0.70922  0.70922  0.70922  0.70922  0.70922  0.04710  0.05283  0.05928
 H2O(L)           0.00000  0.00000  0.00000  0.00000  0.00000  0.66211  0.65639  0.64994

  * THERMODYNAMIC PROPERTIES FITTED TO 20000.K

 NOTE. WEIGHT FRACTION OF FUEL IN TOTAL FUELS AND OF OXIDANT IN TOTAL OXIDANTS

 SINGULAR MATRIX, ITERATION  1  VARIABLE  3(EQLBRM)

               THERMODYNAMIC EQUILIBRIUM PROPERTIES AT ASSIGNED

                           TEMPERATURE AND PRESSURE

 CASE = cp_80-530bar___

             REACTANT                    WT FRACTION      ENERGY      TEMP
                                          (SEE NOTE)     KJ/KG-MOL      K  
 FUEL        H2O                          1.0000000   -292740.000      0.000
 OXIDANT     CO2                          1.0000000   -393500.000      0.000

 O/F=    0.41000  %FUEL= 70.921986  R,EQ.RATIO= 1.000000  PHI,EQ.RATIO= 0.000000

 THERMODYNAMIC PROPERTIES

 P, BAR            150.00   150.00   150.00   150.00   150.00   150.00   150.00   150.00
 T, K              558.00   564.00   570.00   576.00   582.00   588.00   594.00   600.00
 RHO, KG/CU M    3.1386 2 2.9731 2 2.8060 2 2.6374 2 2.4676 2 2.2969 2 2.1258 2 1.9546 2
 H, KJ/KG        -12841.2 -12803.1 -12762.8 -12719.9 -12674.1 -12624.6 -12571.0 -12512.3
 U, KJ/KG        -12889.0 -12853.6 -12816.3 -12776.8 -12734.9 -12690.0 -12641.6 -12589.1
 G, KJ/KG        -16333.2 -16370.9 -16409.1 -16447.7 -16486.8 -16526.3 -16566.4 -16607.0
 S, KJ/(KG)(K)     6.2579   6.3259   6.3970   6.4718   6.5510   6.6355   6.7263   6.8245

 M, (1/n)          97.076   92.947   88.655   84.205   79.604   74.863   69.992   65.005
 MW, MOL WT        21.751   21.751   21.751   21.751   21.751   21.751   21.751   21.751
 (dLV/dLP)t      -1.55909 -1.62834  0.00000 -1.79740 -1.90127 -2.02168 -2.16236 -2.32827
 (dLV/dLT)p        4.8751   5.2590  33.0000   6.1606   6.6934   7.2939   7.9752   8.7540
 Cp, KJ/(KG)(K)    6.1855   6.5258  13.8965   7.3822   7.9250   8.5678   9.3348  10.2575
 GAMMAs            0.8130   0.8005  -0.1361   0.7753   0.7629   0.7507   0.7391   0.7285
 SON VEL,M/SEC      197.1    201.0     -nan    210.0    215.3    221.4    228.4    236.4

 TRANSPORT PROPERTIES (GASES ONLY)
   CONDUCTIVITY IN UNITS OF MILLIWATTS/(CM)(K)

 VISC,MILLIPOISE  0.27994  0.28272  0.28532  0.28769  0.28980  0.29158  0.29299  0.29399

  WITH EQUILIBRIUM REACTIONS

 Cp, KJ/(KG)(K)    1.2258   1.2467   1.2690   1.2928   1.3184   1.3458   1.3752   1.4067
 CONDUCTIVITY      0.4315   0.4397   0.4479   0.4560   0.4639   0.4717   0.4792   0.4865
 PRANDTL NUMBER    0.7953   0.8015   0.8083   0.8157   0.8236   0.8319   0.8408   0.8500

  WITH FROZEN REACTIONS

 Cp, KJ/(KG)(K)    1.2258   1.2467   1.2690   1.2928   1.3184   1.3458   1.3752   1.4067
 CONDUCTIVITY      0.4315   0.4397   0.4479   0.4560   0.4639   0.4717   0.4792   0.4865
 PRANDTL NUMBER    0.7953   0.8015   0.8083   0.8157   0.8236   0.8319   0.8408   0.8500

 MASS FRACTIONS

 *CO2             0.29078  0.29078  0.29078  0.29078  0.29078  0.29078  0.29078  0.29078
 H2O              0.06655  0.07479  0.08418  0.09492  0.10728  0.12161  0.13836  0.15811
 H2O(L)           0.64267  0.63443  0.62504  0.61430  0.60194  0.58761  0.57086  0.55111

  * THERMODYNAMIC PROPERTIES FITTED TO 20000.K

 NOTE. WEIGHT FRACTION OF FUEL IN TOTAL FUELS AND OF OXIDANT IN TOTAL OXIDANTS

 REMOVE  H2O(L)         

               THERMODYNAMIC EQUILIBRIUM PROPERTIES AT ASSIGNED

                           TEMPERATURE AND PRESSURE

 CASE = cp_80-530bar___

             REACTANT                    WT FRACTION      ENERGY      TEMP
                                          (SEE NOTE)     KJ/KG-MOL      K  
 FUEL        H2O                          1.0000000   -292740.000      0.000
 OXIDANT     CO2                          1.0000000   -393500.000      0.000

 O/F=    0.41000  %FUEL= 70.921986  R,EQ.RATIO= 1.000000  PHI,EQ.RATIO= 0.000000

 THERMODYNAMIC PROPERTIES

 P, BAR            150.00   150.00   150.00   150.00   150.00   150.00   150.00   150.00
 T, K              606.00   612.00   618.00   624.00   630.00   636.00   642.00   648.00
 RHO, KG/CU M    6.4753 1 6.4118 1 6.3496 1 6.2885 1 6.2286 1 6.1699 1 6.1122 1 6.0556 1
 H, KJ/KG        -11611.0 -11600.5 -11590.0 -11579.4 -11568.9 -11558.3 -11547.7 -11537.1
 U, KJ/KG        -11842.6 -11834.4 -11826.2 -11818.0 -11809.7 -11801.4 -11793.1 -11784.8
 G, KJ/KG        -16612.9 -16662.4 -16712.1 -16761.9 -16811.8 -16861.8 -16911.8 -16962.0
 S, KJ/(KG)(K)     8.2539   8.2712   8.2883   8.3052   8.3221   8.3388   8.3553   8.3718

 M, (1/n)          21.751   21.751   21.751   21.751   21.751   21.751   21.751   21.751
 MW, MOL WT        21.751   21.751   21.751   21.751   21.751   21.751   21.751   21.751
 (dLV/dLP)t      -1.00000 -1.00000 -1.00000 -1.00000 -1.00000 -1.00000 -1.00000 -1.00000
 (dLV/dLT)p        1.0000   1.0000   1.0000   1.0000   1.0000   1.0000   1.0000   1.0000
 Cp, KJ/(KG)(K)    1.7463   1.7500   1.7537   1.7573   1.7610   1.7647   1.7683   1.7720
 GAMMAs            1.2802   1.2795   1.2787   1.2780   1.2773   1.2765   1.2758   1.2751
 SON VEL,M/SEC      544.6    547.1    549.6    552.1    554.6    557.1    559.5    562.0

 TRANSPORT PROPERTIES (GASES ONLY)
   CONDUCTIVITY IN UNITS OF MILLIWATTS/(CM)(K)

 VISC,MILLIPOISE  0.25825  0.26101  0.26376  0.26652  0.26927  0.27201  0.27475  0.27749

  WITH EQUILIBRIUM REACTIONS

 Cp, KJ/(KG)(K)    1.7463   1.7500   1.7537   1.7573   1.7610   1.7647   1.7683   1.7720
 CONDUCTIVITY      0.4853   0.4919   0.4986   0.5054   0.5122   0.5190   0.5258   0.5326
 PRANDTL NUMBER    0.9294   0.9285   0.9276   0.9267   0.9259   0.9250   0.9241   0.9232

  WITH FROZEN REACTIONS

 Cp, KJ/(KG)(K)    1.7463   1.7500   1.7537   1.7573   1.7610   1.7647   1.7683   1.7720
 CONDUCTIVITY      0.4853   0.4919   0.4986   0.5054   0.5122   0.5190   0.5258   0.5326
 PRANDTL NUMBER    0.9294   0.9285   0.9276   0.9267   0.9259   0.9250   0.9241   0.9232

 MASS FRACTIONS

 *CO2             0.29078  0.29078  0.29078  0.29078  0.29078  0.29078  0.29078  0.29078
 H2O              0.70922  0.70922  0.70922  0.70922  0.70922  0.70922  0.70922  0.70922

  * THERMODYNAMIC PROPERTIES FITTED TO 20000.K

 NOTE. WEIGHT FRACTION OF FUEL IN TOTAL FUELS AND OF OXIDANT IN TOTAL OXIDANTS

 SINGULAR MATRIX, ITERATION  2  VARIABLE  3(EQLBRM)

 DERIVATIVE MATRIX SINGULAR (EQLBRM)

 SINGULAR MATRIX, ITERATION  1  VARIABLE  3(EQLBRM)

 DERIVATIVE MATRIX SINGULAR (EQLBRM)

               THERMODYNAMIC EQUILIBRIUM PROPERTIES AT ASSIGNED

                           TEMPERATURE AND PRESSURE

 CASE = cp_80-530bar___

             REACTANT                    WT FRACTION      ENERGY      TEMP
                                          (SEE NOTE)     KJ/KG-MOL      K  
 FUEL        H2O                          1.0000000   -292740.000      0.000
 OXIDANT     CO2                          1.0000000   -393500.000      0.000

 O/F=    0.41000  %FUEL= 70.921986  R,EQ.RATIO= 1.000000  PHI,EQ.RATIO= 0.000000

 THERMODYNAMIC PROPERTIES

 P, BAR            150.00   150.00   170.00   170.00   170.00   170.00   170.00   170.00
 T, K              654.00   660.00   540.00   546.00   552.00   558.00   564.00   570.00
 RHO, KG/CU M    6.0001 1 5.9455 1 4.2969 2 4.1303 2 3.9616 2 3.7910 2 3.6186 2 3.4447 2
 H, KJ/KG        -11526.4 -11515.8 -12958.7 -12927.6 -12895.3 -12861.7 -12826.7 -12790.0
 U, KJ/KG        -11776.4 -11768.1 -12998.3 -12968.7 -12938.2 -12906.5 -12873.6 -12839.4
 G, KJ/KG        -17012.3 -17062.7 -16217.2 -16253.6 -16290.3 -16327.4 -16364.8 -16402.7
 S, KJ/(KG)(K)     8.3882   8.4044   6.0342   6.0916   6.1504   6.2109   6.2733   6.3380

 M, (1/n)          21.751   21.751  113.486  110.297  106.955  103.461   99.818   96.031
 MW, MOL WT        21.751   21.751   21.751   21.751   21.751   21.751   21.751   21.751
 (dLV/dLP)t      -1.00000  0.00000 -1.33364 -1.37220 -1.00000 -1.46287 -1.51626 -1.00000
 (dLV/dLT)p        1.0000   1.0000   3.4672   3.6943   1.0000   4.2082   4.4993   1.0000
 Cp, KJ/(KG)(K)    1.7757   1.7793   5.1056   5.2847   3.8656   5.7107   5.9658   4.0666
 GAMMAs            1.2743  -4.6548   0.8612   0.8492   1.0205   0.8240   0.8106   1.0218
 SON VEL,M/SEC      564.4     -nan    184.6    187.0    209.3    192.2    195.1    224.6

 TRANSPORT PROPERTIES (GASES ONLY)
   CONDUCTIVITY IN UNITS OF MILLIWATTS/(CM)(K)

 VISC,MILLIPOISE  0.28023  0.28296  0.26995  0.27320  0.27640  0.27952  0.28255  0.28546

  WITH EQUILIBRIUM REACTIONS

 Cp, KJ/(KG)(K)    1.7757   1.7793   1.1528   1.1678   1.1837   1.2005   1.2184   1.2373
 CONDUCTIVITY      0.5395   0.5464   0.4026   0.4107   0.4190   0.4272   0.4355   0.4437
 PRANDTL NUMBER    0.9223   0.9214   0.7730   0.7768   0.7809   0.7855   0.7905   0.7960

  WITH FROZEN REACTIONS

 Cp, KJ/(KG)(K)    1.7757   1.7793   1.1528   1.1678   1.1837   1.2005   1.2184   1.2373
 CONDUCTIVITY      0.5395   0.5464   0.4026   0.4107   0.4190   0.4272   0.4355   0.4437
 PRANDTL NUMBER    0.9223   0.9214   0.7730   0.7768   0.7809   0.7855   0.7905   0.7960

 MASS FRACTIONS

 *CO2             0.29078  0.29078  0.29078  0.29078  0.29078  0.29078  0.29078  0.29078
 H2O              0.70922  0.70922  0.03971  0.04430  0.04941  0.05510  0.06145  0.06857
 H2O(L)           0.00000  0.00000  0.66951  0.66492  0.65981  0.65412  0.64777  0.64065

  * THERMODYNAMIC PROPERTIES FITTED TO 20000.K

 NOTE. WEIGHT FRACTION OF FUEL IN TOTAL FUELS AND OF OXIDANT IN TOTAL OXIDANTS

 SINGULAR MATRIX, ITERATION  1  VARIABLE  3(EQLBRM)
 REMOVE  H2O(L)         

               THERMODYNAMIC EQUILIBRIUM PROPERTIES AT ASSIGNED

                           TEMPERATURE AND PRESSURE

 CASE = cp_80-530bar___

             REACTANT                    WT FRACTION      ENERGY      TEMP
                                          (SEE NOTE)     KJ/KG-MOL      K  
 FUEL        H2O                          1.0000000   -292740.000      0.000
 OXIDANT     CO2                          1.0000000   -393500.000      0.000

 O/F=    0.41000  %FUEL= 70.921986  R,EQ.RATIO= 1.000000  PHI,EQ.RATIO= 0.000000

 THERMODYNAMIC PROPERTIES

 P, BAR            170.00   170.00   170.00   170.00   170.00   170.00   170.00   170.00
 T, K              576.00   582.00   588.00   594.00   600.00   606.00   612.00   618.00
 RHO, KG/CU M    3.2694 2 3.0931 2 2.9161 2 2.7387 2 2.5613 2 7.3387 1 7.2668 1 7.1962 1
 H, KJ/KG        -12751.5 -12710.9 -12667.8 -12621.9 -12572.9 -11611.0 -11600.5 -11590.0
 U, KJ/KG        -12803.5 -12765.8 -12726.1 -12684.0 -12639.2 -11842.6 -11834.4 -11826.2
 G, KJ/KG        -16440.9 -16479.5 -16518.6 -16558.1 -16598.1 -16583.9 -16633.1 -16682.5
 S, KJ/(KG)(K)     6.4052   6.4753   6.5490   6.6266   6.7088   8.2061   8.2233   8.2404

 M, (1/n)          92.104   88.045   83.862   79.564   75.163   21.751   21.751   21.751
 MW, MOL WT        21.751   21.751   21.751   21.751   21.751   21.751   21.751   21.751
 (dLV/dLP)t      -1.64324 -1.71900 -1.80475 -1.90224 -2.01361 -1.00000 -1.00000 -1.00000
 (dLV/dLT)p        5.1629   5.5420   5.9576   6.4142   6.9171   1.0000   1.0000   1.0000
 Cp, KJ/(KG)(K)    6.5869   6.9659   7.4006   7.9000   8.4741   1.7463   1.7500   1.7537
 GAMMAs            0.7825   0.7677   0.7523   0.7364   0.7199   1.2802   1.2795   1.2787
 SON VEL,M/SEC      201.7    205.4    209.4    213.8    218.6    544.6    547.1    549.6

 TRANSPORT PROPERTIES (GASES ONLY)
   CONDUCTIVITY IN UNITS OF MILLIWATTS/(CM)(K)

 VISC,MILLIPOISE  0.28823  0.29083  0.29322  0.29538  0.29726  0.25825  0.26101  0.26376

  WITH EQUILIBRIUM REACTIONS

 Cp, KJ/(KG)(K)    1.2575   1.2788   1.3015   1.3256   1.3512   1.7463   1.7500   1.7537
 CONDUCTIVITY      0.4519   0.4601   0.4681   0.4761   0.4839   0.4853   0.4919   0.4986
 PRANDTL NUMBER    0.8020   0.8084   0.8152   0.8224   0.8301   0.9294   0.9285   0.9276

  WITH FROZEN REACTIONS

 Cp, KJ/(KG)(K)    1.2575   1.2788   1.3015   1.3256   1.3512   1.7463   1.7500   1.7537
 CONDUCTIVITY      0.4519   0.4601   0.4681   0.4761   0.4839   0.4853   0.4919   0.4986
 PRANDTL NUMBER    0.8020   0.8084   0.8152   0.8224   0.8301   0.9294   0.9285   0.9276

 MASS FRACTIONS

 *CO2             0.29078  0.29078  0.29078  0.29078  0.29078  0.29078  0.29078  0.29078
 H2O              0.07657  0.08558  0.09579  0.10739  0.12065  0.70922  0.70922  0.70922
 H2O(L)           0.63265  0.62364  0.61343  0.60183  0.58857  0.00000  0.00000  0.00000

  * THERMODYNAMIC PROPERTIES FITTED TO 20000.K

 NOTE. WEIGHT FRACTION OF FUEL IN TOTAL FUELS AND OF OXIDANT IN TOTAL OXIDANTS

 SINGULAR MATRIX, ITERATION  2  VARIABLE  3(EQLBRM)

               THERMODYNAMIC EQUILIBRIUM PROPERTIES AT ASSIGNED

                           TEMPERATURE AND PRESSURE

 CASE = cp_80-530bar___

             REACTANT                    WT FRACTION      ENERGY      TEMP
                                          (SEE NOTE)     KJ/KG-MOL      K  
 FUEL        H2O                          1.0000000   -292740.000      0.000
 OXIDANT     CO2                          1.0000000   -393500.000      0.000

 O/F=    0.41000  %FUEL= 70.921986  R,EQ.RATIO= 1.000000  PHI,EQ.RATIO= 0.000000

 THERMODYNAMIC PROPERTIES

 P, BAR            170.00   170.00   170.00   170.00   170.00   170.00   170.00   190.00
 T, K              624.00   630.00   636.00   642.00   648.00   654.00   660.00   540.00
 RHO, KG/CU M    7.1270 1 7.0591 1 6.9925 1 6.9272 1 6.8630 1 6.8001 1 6.7383 1 4.9711 2
 H, KJ/KG        -11579.4 -11568.9 -11558.3 -11547.7 -11537.1 -11526.4 -11515.8 -12968.6
 U, KJ/KG        -11818.0 -11809.7 -11801.4 -11793.1 -11784.8 -11776.4 -11768.1 -13006.9
 G, KJ/KG        -16732.0 -16781.6 -16831.3 -16881.1 -16931.0 -16981.0 -17031.1 -16212.9
 S, KJ/(KG)(K)     8.2574   8.2742   8.2909   8.3075   8.3240   8.3403   8.3566   6.0078

 M, (1/n)          21.751   21.751   21.751   21.751   21.751   21.751   21.751  117.471
 MW, MOL WT        21.751   21.751   21.751   21.751   21.751   21.751   21.751   21.751
 (dLV/dLP)t      -1.00000 -1.00000 -1.00000 -1.00000 -1.00000 -1.00000 -1.00000 -1.28839
 (dLV/dLT)p        1.0000   1.0000   1.0000   1.0000   1.0000   1.0000   1.0000   3.1326
 Cp, KJ/(KG)(K)    1.7573   1.7610   1.7647   1.7683   1.7720   1.7757   1.7793   4.9017
 GAMMAs            1.2780   1.2773   1.2765   1.2758   1.2751   1.2743   1.2736   0.8721
 SON VEL,M/SEC      552.1    554.6    557.1    559.5    562.0    564.4    566.9    182.6

 TRANSPORT PROPERTIES (GASES ONLY)
   CONDUCTIVITY IN UNITS OF MILLIWATTS/(CM)(K)

 VISC,MILLIPOISE  0.26652  0.26927  0.27201  0.27475  0.27749  0.28023  0.28296  0.26913

  WITH EQUILIBRIUM REACTIONS

 Cp, KJ/(KG)(K)    1.7573   1.7610   1.7647   1.7683   1.7720   1.7757   1.7793   1.1391
 CONDUCTIVITY      0.5054   0.5122   0.5190   0.5258   0.5326   0.5395   0.5464   0.3991
 PRANDTL NUMBER    0.9267   0.9259   0.9250   0.9241   0.9232   0.9223   0.9214   0.7682

  WITH FROZEN REACTIONS

 Cp, KJ/(KG)(K)    1.7573   1.7610   1.7647   1.7683   1.7720   1.7757   1.7793   1.1391
 CONDUCTIVITY      0.5054   0.5122   0.5190   0.5258   0.5326   0.5395   0.5464   0.3991
 PRANDTL NUMBER    0.9267   0.9259   0.9250   0.9241   0.9232   0.9223   0.9214   0.7682

 MASS FRACTIONS

 *CO2             0.29078  0.29078  0.29078  0.29078  0.29078  0.29078  0.29078  0.29078
 H2O              0.70922  0.70922  0.70922  0.70922  0.70922  0.70922  0.70922  0.03433
 H2O(L)           0.00000  0.00000  0.00000  0.00000  0.00000  0.00000  0.00000  0.67489

  * THERMODYNAMIC PROPERTIES FITTED TO 20000.K

 NOTE. WEIGHT FRACTION OF FUEL IN TOTAL FUELS AND OF OXIDANT IN TOTAL OXIDANTS

 DERIVATIVE MATRIX SINGULAR (EQLBRM)

 SINGULAR MATRIX, ITERATION  1  VARIABLE  3(EQLBRM)

 DERIVATIVE MATRIX SINGULAR (EQLBRM)

 SINGULAR MATRIX, ITERATION  1  VARIABLE  3(EQLBRM)

               THERMODYNAMIC EQUILIBRIUM PROPERTIES AT ASSIGNED

                           TEMPERATURE AND PRESSURE

 CASE = cp_80-530bar___

             REACTANT                    WT FRACTION      ENERGY      TEMP
                                          (SEE NOTE)     KJ/KG-MOL      K  
 FUEL        H2O                          1.0000000   -292740.000      0.000
 OXIDANT     CO2                          1.0000000   -393500.000      0.000

 O/F=    0.41000  %FUEL= 70.921986  R,EQ.RATIO= 1.000000  PHI,EQ.RATIO= 0.000000

 THERMODYNAMIC PROPERTIES

 P, BAR            190.00   190.00   190.00   190.00   190.00   190.00   190.00   190.00
 T, K              546.00   552.00   558.00   564.00   570.00   576.00   582.00   588.00
 RHO, KG/CU M    4.7971 2 4.6212 2 4.4434 2 4.2641 2 4.0834 2 3.9015 2 3.7186 2 3.5352 2
 H, KJ/KG        -12938.8 -12908.0 -12876.1 -12843.1 -12808.7 -12772.9 -12735.3 -12695.9
 U, KJ/KG        -12978.4 -12949.1 -12918.9 -12887.6 -12855.2 -12821.6 -12786.4 -12749.6
 G, KJ/KG        -16249.1 -16285.6 -16322.5 -16359.7 -16397.3 -16435.3 -16473.6 -16512.4
 S, KJ/(KG)(K)     6.0628   6.1189   6.1763   6.2352   6.2958   6.3584   6.4233   6.4907

 M, (1/n)         114.619  111.628  108.502  105.242  101.854   98.340   94.709   90.966
 MW, MOL WT        21.751   21.751   21.751   21.751   21.751   21.751   21.751   21.751
 (dLV/dLP)t      -1.32046 -1.00000 -1.39490 -1.43811 -1.00000 -1.53903 -1.59806  0.00000
 (dLV/dLT)p        3.3198   1.0000   3.7372   3.9696   1.0000   4.4885   4.7779   1.0000
 Cp, KJ/(KG)(K)    5.0521   3.8886   5.4047   5.6129   4.1059   6.1113   6.4098  12.0334
 GAMMAs            0.8604   1.0195   0.8355   0.8222   1.0203   0.7935   0.7780-131.6529
 SON VEL,M/SEC      184.6    204.7    189.0    191.4    217.9    196.6    199.4     -nan

 TRANSPORT PROPERTIES (GASES ONLY)
   CONDUCTIVITY IN UNITS OF MILLIWATTS/(CM)(K)

 VISC,MILLIPOISE  0.27241  0.27566  0.27887  0.28202  0.28510  0.28809  0.29096  0.29370

  WITH EQUILIBRIUM REACTIONS

 Cp, KJ/(KG)(K)    1.1525   1.1667   1.1816   1.1974   1.2140   1.2315   1.2499   1.2694
 CONDUCTIVITY      0.4071   0.4152   0.4233   0.4315   0.4397   0.4480   0.4562   0.4644
 PRANDTL NUMBER    0.7713   0.7747   0.7784   0.7826   0.7871   0.7919   0.7972   0.8029

  WITH FROZEN REACTIONS

 Cp, KJ/(KG)(K)    1.1525   1.1667   1.1816   1.1974   1.2140   1.2315   1.2499   1.2694
 CONDUCTIVITY      0.4071   0.4152   0.4233   0.4315   0.4397   0.4480   0.4562   0.4644
 PRANDTL NUMBER    0.7713   0.7747   0.7784   0.7826   0.7871   0.7919   0.7972   0.8029

 MASS FRACTIONS

 *CO2             0.29078  0.29078  0.29078  0.29078  0.29078  0.29078  0.29078  0.29078
 H2O              0.03815  0.04236  0.04701  0.05215  0.05784  0.06416  0.07119  0.07901
 H2O(L)           0.67107  0.66686  0.66221  0.65707  0.65138  0.64506  0.63803  0.63021

  * THERMODYNAMIC PROPERTIES FITTED TO 20000.K

 NOTE. WEIGHT FRACTION OF FUEL IN TOTAL FUELS AND OF OXIDANT IN TOTAL OXIDANTS

 REMOVE  H2O(L)         

 SINGULAR MATRIX, ITERATION  5  VARIABLE  3(EQLBRM)

               THERMODYNAMIC EQUILIBRIUM PROPERTIES AT ASSIGNED

                           TEMPERATURE AND PRESSURE

 CASE = cp_80-530bar___

             REACTANT                    WT FRACTION      ENERGY      TEMP
                                          (SEE NOTE)     KJ/KG-MOL      K  
 FUEL        H2O                          1.0000000   -292740.000      0.000
 OXIDANT     CO2                          1.0000000   -393500.000      0.000

 O/F=    0.41000  %FUEL= 70.921986  R,EQ.RATIO= 1.000000  PHI,EQ.RATIO= 0.000000

 THERMODYNAMIC PROPERTIES

 P, BAR            190.00   190.00   190.00   190.00   190.00   190.00   190.00   190.00
 T, K              594.00   600.00   606.00   612.00   618.00   624.00   630.00   636.00
 RHO, KG/CU M    3.3516 2 3.1681 2 8.2021 1 8.1217 1 8.0428 1 7.9655 1 7.8896 1 7.8152 1
 H, KJ/KG        -12654.3 -12610.2 -11611.0 -11600.5 -11590.0 -11579.4 -11568.9 -11558.3
 U, KJ/KG        -12710.9 -12670.2 -11842.6 -11834.4 -11826.2 -11818.0 -11809.7 -11801.4
 G, KJ/KG        -16551.5 -16591.1 -16558.1 -16607.1 -16656.3 -16705.5 -16754.8 -16804.3
 S, KJ/(KG)(K)     6.5611   6.6348   8.1636   8.1808   8.1979   8.2149   8.2317   8.2484

 M, (1/n)          87.120   83.183   21.751   21.751   21.751   21.751   21.751   21.751
 MW, MOL WT        21.751   21.751   21.751   21.751   21.751   21.751   21.751   21.751
 (dLV/dLP)t      -1.73724 -1.81948 -1.00000 -1.00000 -1.00000 -1.00000 -1.00000 -1.00000
 (dLV/dLT)p        5.4241   5.7838   1.0000   1.0000   1.0000   1.0000   1.0000   1.0000
 Cp, KJ/(KG)(K)    7.1287   7.5587   1.7463   1.7500   1.7537   1.7573   1.7610   1.7647
 GAMMAs            0.7444   0.7262   1.2802   1.2795   1.2787   1.2780   1.2773   1.2765
 SON VEL,M/SEC      205.4    208.7    544.6    547.1    549.6    552.1    554.6    557.1

 TRANSPORT PROPERTIES (GASES ONLY)
   CONDUCTIVITY IN UNITS OF MILLIWATTS/(CM)(K)

 VISC,MILLIPOISE  0.29628  0.29868  0.25825  0.26101  0.26376  0.26652  0.26927  0.27201

  WITH EQUILIBRIUM REACTIONS

 Cp, KJ/(KG)(K)    1.2900   1.3117   1.7463   1.7500   1.7537   1.7573   1.7610   1.7647
 CONDUCTIVITY      0.4725   0.4805   0.4853   0.4919   0.4986   0.5054   0.5122   0.5190
 PRANDTL NUMBER    0.8089   0.8153   0.9294   0.9285   0.9276   0.9267   0.9259   0.9250

  WITH FROZEN REACTIONS

 Cp, KJ/(KG)(K)    1.2900   1.3117   1.7463   1.7500   1.7537   1.7573   1.7610   1.7647
 CONDUCTIVITY      0.4725   0.4805   0.4853   0.4919   0.4986   0.5054   0.5122   0.5190
 PRANDTL NUMBER    0.8089   0.8153   0.9294   0.9285   0.9276   0.9267   0.9259   0.9250

 MASS FRACTIONS

 *CO2             0.29078  0.29078  0.29078  0.29078  0.29078  0.29078  0.29078  0.29078
 H2O              0.08776  0.09754  0.70922  0.70922  0.70922  0.70922  0.70922  0.70922
 H2O(L)           0.62146  0.61168  0.00000  0.00000  0.00000  0.00000  0.00000  0.00000

  * THERMODYNAMIC PROPERTIES FITTED TO 20000.K

 NOTE. WEIGHT FRACTION OF FUEL IN TOTAL FUELS AND OF OXIDANT IN TOTAL OXIDANTS

 SINGULAR MATRIX, ITERATION  2  VARIABLE  3(EQLBRM)

 DERIVATIVE MATRIX SINGULAR (EQLBRM)

 SINGULAR MATRIX, ITERATION  1  VARIABLE  3(EQLBRM)

               THERMODYNAMIC EQUILIBRIUM PROPERTIES AT ASSIGNED

                           TEMPERATURE AND PRESSURE

 CASE = cp_80-530bar___

             REACTANT                    WT FRACTION      ENERGY      TEMP
                                          (SEE NOTE)     KJ/KG-MOL      K  
 FUEL        H2O                          1.0000000   -292740.000      0.000
 OXIDANT     CO2                          1.0000000   -393500.000      0.000

 O/F=    0.41000  %FUEL= 70.921986  R,EQ.RATIO= 1.000000  PHI,EQ.RATIO= 0.000000

 THERMODYNAMIC PROPERTIES

 P, BAR            190.00   190.00   190.00   190.00   210.00   210.00   210.00   210.00
 T, K              642.00   648.00   654.00   660.00   540.00   546.00   552.00   558.00
 RHO, KG/CU M    7.7421 1 7.6705 1 7.6001 1 7.5310 1 5.6453 2 5.4639 2 5.2807 2 5.0959 2
 H, KJ/KG        -11547.7 -11537.1 -11526.4 -11515.8 -12976.2 -12947.3 -12917.5 -12886.9
 U, KJ/KG        -11793.1 -11784.8 -11776.4 -11768.1 -13013.4 -12985.7 -12957.3 -12928.1
 G, KJ/KG        -16853.8 -16903.5 -16953.2 -17003.0 -16209.1 -16245.2 -16281.6 -16318.3
 S, KJ/(KG)(K)     8.2650   8.2815   8.2978   8.3140   5.9869   6.0401   6.0943   6.1496

 M, (1/n)          21.751   21.751   21.751   21.751  120.698  118.117  115.411  112.582
 MW, MOL WT        21.751   21.751   21.751   21.751   21.751   21.751   21.751   21.751
 (dLV/dLP)t      -1.00000 -1.00000 -1.00000 -1.00000 -1.25395 -1.28136 -1.00000 -1.34434
 (dLV/dLT)p        1.0000   1.0000   1.0000   1.0000   2.8779   3.0367   1.0000   3.3867
 Cp, KJ/(KG)(K)    1.7683   1.7720   1.7757   1.7793   4.7548   4.8865   3.9058   5.1929
 GAMMAs            1.2758   1.2751   1.2743   1.2736   0.8819   0.8707   1.0188   0.8466
 SON VEL,M/SEC      559.5    562.0    564.4    566.9    181.1    182.9    201.3    186.8

 TRANSPORT PROPERTIES (GASES ONLY)
   CONDUCTIVITY IN UNITS OF MILLIWATTS/(CM)(K)

 VISC,MILLIPOISE  0.27475  0.27749  0.28023  0.28296  0.26835  0.27163  0.27490  0.27814

  WITH EQUILIBRIUM REACTIONS

 Cp, KJ/(KG)(K)    1.7683   1.7720   1.7757   1.7793   1.1284   1.1406   1.1535   1.1670
 CONDUCTIVITY      0.5258   0.5326   0.5395   0.5464   0.3960   0.4039   0.4118   0.4198
 PRANDTL NUMBER    0.9241   0.9232   0.9223   0.9214   0.7646   0.7672   0.7700   0.7731

  WITH FROZEN REACTIONS

 Cp, KJ/(KG)(K)    1.7683   1.7720   1.7757   1.7793   1.1284   1.1406   1.1535   1.1670
 CONDUCTIVITY      0.5258   0.5326   0.5395   0.5464   0.3960   0.4039   0.4118   0.4198
 PRANDTL NUMBER    0.9241   0.9232   0.9223   0.9214   0.7646   0.7672   0.7700   0.7731

 MASS FRACTIONS

 *CO2             0.29078  0.29078  0.29078  0.29078  0.29078  0.29078  0.29078  0.29078
 H2O              0.70922  0.70922  0.70922  0.70922  0.03023  0.03349  0.03707  0.04099
 H2O(L)           0.00000  0.00000  0.00000  0.00000  0.67899  0.67573  0.67215  0.66823

  * THERMODYNAMIC PROPERTIES FITTED TO 20000.K

 NOTE. WEIGHT FRACTION OF FUEL IN TOTAL FUELS AND OF OXIDANT IN TOTAL OXIDANTS

 SINGULAR MATRIX, ITERATION  2  VARIABLE  3(EQLBRM)
 REMOVE  H2O(L)         

               THERMODYNAMIC EQUILIBRIUM PROPERTIES AT ASSIGNED

                           TEMPERATURE AND PRESSURE

 CASE = cp_80-530bar___

             REACTANT                    WT FRACTION      ENERGY      TEMP
                                          (SEE NOTE)     KJ/KG-MOL      K  
 FUEL        H2O                          1.0000000   -292740.000      0.000
 OXIDANT     CO2                          1.0000000   -393500.000      0.000

 O/F=    0.41000  %FUEL= 70.921986  R,EQ.RATIO= 1.000000  PHI,EQ.RATIO= 0.000000

 THERMODYNAMIC PROPERTIES

 P, BAR            210.00   210.00   210.00   210.00   210.00   210.00   210.00   210.00
 T, K              564.00   570.00   576.00   582.00   588.00   594.00   600.00   606.00
 RHO, KG/CU M    4.9096 2 4.7221 2 4.5335 2 4.3442 2 4.1544 2 3.9645 2 3.7749 2 9.0654 1
 H, KJ/KG        -12855.2 -12822.4 -12788.2 -12752.7 -12715.5 -12676.6 -12635.6 -11611.0
 U, KJ/KG        -12898.0 -12866.8 -12834.6 -12801.0 -12766.1 -12729.5 -12691.2 -11842.6
 G, KJ/KG        -16355.4 -16392.8 -16430.6 -16468.7 -16507.2 -16546.1 -16585.4 -16534.9
 S, KJ/(KG)(K)     6.2060   6.2639   6.3235   6.3848   6.4483   6.5143   6.5830   8.1253

 M, (1/n)         109.633  106.568  103.389  100.103   96.717   93.237   89.675   21.751
 MW, MOL WT        21.751   21.751   21.751   21.751   21.751   21.751   21.751   21.751
 (dLV/dLP)t      -1.38051 -1.42022 -1.46388 -1.51194  0.00000 -1.62327 -1.68776 -1.00000
 (dLV/dLT)p        3.5791   3.7841   4.0021   4.2339-111.0000   4.7402   5.0149   1.0000
 Cp, KJ/(KG)(K)    5.3726   5.5736   5.7992   6.0529-595.7224   6.6589   7.0180   1.7463
 GAMMAs            0.8336   0.8198   0.8053   0.7899   0.5624   0.7562   0.7377   1.2802
 SON VEL,M/SEC      188.8    190.9    193.1    195.4    168.6    200.1    202.6    544.6

 TRANSPORT PROPERTIES (GASES ONLY)
   CONDUCTIVITY IN UNITS OF MILLIWATTS/(CM)(K)

 VISC,MILLIPOISE  0.28136  0.28453  0.28763  0.29067  0.29361  0.29644  0.29914  0.25825

  WITH EQUILIBRIUM REACTIONS

 Cp, KJ/(KG)(K)    1.1811   1.1960   1.2116   1.2279   1.2451   1.2631   1.2820   1.7463
 CONDUCTIVITY      0.4279   0.4361   0.4443   0.4525   0.4607   0.4689   0.4770   0.4853
 PRANDTL NUMBER    0.7766   0.7803   0.7844   0.7888   0.7936   0.7986   0.8040   0.9294

  WITH FROZEN REACTIONS

 Cp, KJ/(KG)(K)    1.1811   1.1960   1.2116   1.2279   1.2451   1.2631   1.2820   1.7463
 CONDUCTIVITY      0.4279   0.4361   0.4443   0.4525   0.4607   0.4689   0.4770   0.4853
 PRANDTL NUMBER    0.7766   0.7803   0.7844   0.7888   0.7936   0.7986   0.8040   0.9294

 MASS FRACTIONS

 *CO2             0.29078  0.29078  0.29078  0.29078  0.29078  0.29078  0.29078  0.29078
 H2O              0.04529  0.05002  0.05522  0.06094  0.06724  0.07419  0.08186  0.70922
 H2O(L)           0.66393  0.65920  0.65400  0.64828  0.64198  0.63503  0.62736  0.00000

  * THERMODYNAMIC PROPERTIES FITTED TO 20000.K

 NOTE. WEIGHT FRACTION OF FUEL IN TOTAL FUELS AND OF OXIDANT IN TOTAL OXIDANTS

 DERIVATIVE MATRIX SINGULAR (EQLBRM)

 SINGULAR MATRIX, ITERATION  1  VARIABLE  3(EQLBRM)

               THERMODYNAMIC EQUILIBRIUM PROPERTIES AT ASSIGNED

                           TEMPERATURE AND PRESSURE

 CASE = cp_80-530bar___

             REACTANT                    WT FRACTION      ENERGY      TEMP
                                          (SEE NOTE)     KJ/KG-MOL      K  
 FUEL        H2O                          1.0000000   -292740.000      0.000
 OXIDANT     CO2                          1.0000000   -393500.000      0.000

 O/F=    0.41000  %FUEL= 70.921986  R,EQ.RATIO= 1.000000  PHI,EQ.RATIO= 0.000000

 THERMODYNAMIC PROPERTIES

 P, BAR            210.00   210.00   210.00   210.00   210.00   210.00   210.00   210.00
 T, K              612.00   618.00   624.00   630.00   636.00   642.00   648.00   654.00
 RHO, KG/CU M    8.9766 1 8.8894 1 8.8040 1 8.7201 1 8.6378 1 8.5571 1 8.4779 1 8.4001 1
 H, KJ/KG        -11600.5 -11590.0 -11579.4 -11568.9 -11558.3 -11547.7 -11537.1 -11526.4
 U, KJ/KG        -11834.4 -11826.2 -11818.0 -11809.7 -11801.4 -11793.1 -11784.8 -11776.4
 G, KJ/KG        -16583.7 -16632.6 -16681.6 -16730.7 -16779.9 -16829.3 -16878.7 -16928.2
 S, KJ/(KG)(K)     8.1425   8.1596   8.1766   8.1934   8.2101   8.2267   8.2432   8.2595

 M, (1/n)          21.751   21.751   21.751   21.751   21.751   21.751   21.751   21.751
 MW, MOL WT        21.751   21.751   21.751   21.751   21.751   21.751   21.751   21.751
 (dLV/dLP)t      -1.00000 -1.00000 -1.00000 -1.00000 -1.00000 -1.00000 -1.00000 -1.00000
 (dLV/dLT)p        1.0000   1.0000   1.0000   1.0000   1.0000   1.0000   1.0000   1.0000
 Cp, KJ/(KG)(K)    1.7500   1.7537   1.7573   1.7610   1.7647   1.7683   1.7720   1.7757
 GAMMAs            1.2795   1.2787   1.2780   1.2773   1.2765   1.2758   1.2751   1.2743
 SON VEL,M/SEC      547.1    549.6    552.1    554.6    557.1    559.5    562.0    564.4

 TRANSPORT PROPERTIES (GASES ONLY)
   CONDUCTIVITY IN UNITS OF MILLIWATTS/(CM)(K)

 VISC,MILLIPOISE  0.26101  0.26376  0.26652  0.26927  0.27201  0.27475  0.27749  0.28023

  WITH EQUILIBRIUM REACTIONS

 Cp, KJ/(KG)(K)    1.7500   1.7537   1.7573   1.7610   1.7647   1.7683   1.7720   1.7757
 CONDUCTIVITY      0.4919   0.4986   0.5054   0.5122   0.5190   0.5258   0.5326   0.5395
 PRANDTL NUMBER    0.9285   0.9276   0.9267   0.9259   0.9250   0.9241   0.9232   0.9223

  WITH FROZEN REACTIONS

 Cp, KJ/(KG)(K)    1.7500   1.7537   1.7573   1.7610   1.7647   1.7683   1.7720   1.7757
 CONDUCTIVITY      0.4919   0.4986   0.5054   0.5122   0.5190   0.5258   0.5326   0.5395
 PRANDTL NUMBER    0.9285   0.9276   0.9267   0.9259   0.9250   0.9241   0.9232   0.9223

 MASS FRACTIONS

 *CO2             0.29078  0.29078  0.29078  0.29078  0.29078  0.29078  0.29078  0.29078
 H2O              0.70922  0.70922  0.70922  0.70922  0.70922  0.70922  0.70922  0.70922

  * THERMODYNAMIC PROPERTIES FITTED TO 20000.K

 NOTE. WEIGHT FRACTION OF FUEL IN TOTAL FUELS AND OF OXIDANT IN TOTAL OXIDANTS

 SINGULAR MATRIX, ITERATION  2  VARIABLE  3(EQLBRM)

 DERIVATIVE MATRIX SINGULAR (EQLBRM)

 SINGULAR MATRIX, ITERATION  1  VARIABLE  3(EQLBRM)

 SINGULAR MATRIX, ITERATION  2  VARIABLE  3(EQLBRM)

               THERMODYNAMIC EQUILIBRIUM PROPERTIES AT ASSIGNED

                           TEMPERATURE AND PRESSURE

 CASE = cp_80-530bar___

             REACTANT                    WT FRACTION      ENERGY      TEMP
                                          (SEE NOTE)     KJ/KG-MOL      K  
 FUEL        H2O                          1.0000000   -292740.000      0.000
 OXIDANT     CO2                          1.0000000   -393500.000      0.000

 O/F=    0.41000  %FUEL= 70.921986  R,EQ.RATIO= 1.000000  PHI,EQ.RATIO= 0.000000

 THERMODYNAMIC PROPERTIES

 P, BAR            210.00   230.00   230.00   230.00   230.00   230.00   230.00   230.00
 T, K              660.00   540.00   546.00   552.00   558.00   564.00   570.00   576.00
 RHO, KG/CU M    8.3237 1 6.3195 2 6.1307 2 5.9402 2 5.7483 2 5.5551 2 5.3608 2 5.1656 2
 H, KJ/KG        -11515.8 -12982.1 -12953.9 -12925.0 -12895.2 -12864.5 -12832.7 -12799.9
 U, KJ/KG        -11768.1 -13018.5 -12991.4 -12963.7 -12935.2 -12905.9 -12875.6 -12844.4
 G, KJ/KG        -16977.8 -16205.8 -16241.7 -16278.0 -16314.6 -16351.6 -16388.8 -16426.4
 S, KJ/(KG)(K)     8.2758   5.9697   6.0216   6.0744   6.1281   6.1828   6.2387   6.2961

 M, (1/n)          21.751  123.363  121.007  118.536  115.953  113.261  110.462  107.559
 MW, MOL WT        21.751   21.751   21.751   21.751   21.751   21.751   21.751   21.751
 (dLV/dLP)t      -1.00000 -1.22686 -1.25076 -1.00000 -1.30526 -1.33629 -1.37016 -1.40712
 (dLV/dLT)p        1.0000   2.6775   2.8152   1.0000   3.1158   3.2795   3.4524   3.6348
 Cp, KJ/(KG)(K)    1.7793   4.6442   4.7631   3.9192   5.0385   5.1994   5.3792   5.5808
 GAMMAs            1.2736   0.8906   0.8800   1.0182   0.8568   0.8443   0.8310   0.8169
 SON VEL,M/SEC      566.9    180.0    181.7    198.6    185.2    187.0    188.8    190.7

 TRANSPORT PROPERTIES (GASES ONLY)
   CONDUCTIVITY IN UNITS OF MILLIWATTS/(CM)(K)

 VISC,MILLIPOISE  0.28296  0.26763  0.27089  0.27416  0.27742  0.28066  0.28387  0.28704

  WITH EQUILIBRIUM REACTIONS

 Cp, KJ/(KG)(K)    1.7793   1.1197   1.1311   1.1429   1.1553   1.1682   1.1817   1.1958
 CONDUCTIVITY      0.5464   0.3933   0.4010   0.4088   0.4167   0.4247   0.4328   0.4409
 PRANDTL NUMBER    0.9214   0.7619   0.7640   0.7664   0.7690   0.7719   0.7751   0.7786

  WITH FROZEN REACTIONS

 Cp, KJ/(KG)(K)    1.7793   1.1197   1.1311   1.1429   1.1553   1.1682   1.1817   1.1958
 CONDUCTIVITY      0.5464   0.3933   0.4010   0.4088   0.4167   0.4247   0.4328   0.4409
 PRANDTL NUMBER    0.9214   0.7619   0.7640   0.7664   0.7690   0.7719   0.7751   0.7786

 MASS FRACTIONS

 *CO2             0.29078  0.29078  0.29078  0.29078  0.29078  0.29078  0.29078  0.29078
 H2O              0.70922  0.02700  0.02985  0.03295  0.03634  0.04003  0.04406  0.04846
 H2O(L)           0.00000  0.68222  0.67937  0.67627  0.67288  0.66919  0.66516  0.66076

  * THERMODYNAMIC PROPERTIES FITTED TO 20000.K

 NOTE. WEIGHT FRACTION OF FUEL IN TOTAL FUELS AND OF OXIDANT IN TOTAL OXIDANTS

 REMOVE  H2O(L)         

               THERMODYNAMIC EQUILIBRIUM PROPERTIES AT ASSIGNED

                           TEMPERATURE AND PRESSURE

 CASE = cp_80-530bar___

             REACTANT                    WT FRACTION      ENERGY      TEMP
                                          (SEE NOTE)     KJ/KG-MOL      K  
 FUEL        H2O                          1.0000000   -292740.000      0.000
 OXIDANT     CO2                          1.0000000   -393500.000      0.000

 O/F=    0.41000  %FUEL= 70.921986  R,EQ.RATIO= 1.000000  PHI,EQ.RATIO= 0.000000

 THERMODYNAMIC PROPERTIES

 P, BAR            230.00   230.00   230.00   230.00   230.00   230.00   230.00   230.00
 T, K              582.00   588.00   594.00   600.00   606.00   612.00   618.00   624.00
 RHO, KG/CU M    4.9697 2 4.7735 2 4.5774 2 4.3816 2 9.9288 1 9.8315 1 9.7360 1 9.6424 1
 H, KJ/KG        -12765.7 -12730.1 -12692.9 -12653.9 -11611.0 -11600.5 -11590.0 -11579.4
 U, KJ/KG        -12812.0 -12778.3 -12743.2 -12706.4 -11842.6 -11834.4 -11826.2 -11818.0
 G, KJ/KG        -16464.4 -16502.7 -16541.4 -16580.4 -16513.8 -16562.4 -16611.1 -16659.9
 S, KJ/(KG)(K)     6.3551   6.4159   6.4789   6.5442   8.0906   8.1078   8.1249   8.1418

 M, (1/n)         104.559  101.467   98.291   95.038   21.751   21.751   21.751   21.751
 MW, MOL WT        21.751   21.751   21.751   21.751   21.751   21.751   21.751   21.751
 (dLV/dLP)t      -1.44750  0.00000 -1.53981 -1.59252 -1.00000 -1.00000 -1.00000 -1.00000
 (dLV/dLT)p        3.8269 -20.3333   4.2394   4.4589   1.0000   1.0000   1.0000   1.0000
 Cp, KJ/(KG)(K)    5.8072 -36.2971   6.3474   6.6675   1.7463   1.7500   1.7537   1.7573
 GAMMAs            0.8019   1.0714   0.7691   0.7510   1.2802   1.2795   1.2787   1.2780
 SON VEL,M/SEC      192.7    227.2    196.6    198.5    544.6    547.1    549.6    552.1

 TRANSPORT PROPERTIES (GASES ONLY)
   CONDUCTIVITY IN UNITS OF MILLIWATTS/(CM)(K)

 VISC,MILLIPOISE  0.29016  0.29322  0.29620  0.29909  0.25825  0.26101  0.26376  0.26652

  WITH EQUILIBRIUM REACTIONS

 Cp, KJ/(KG)(K)    1.2106   1.2260   1.2421   1.2590   1.7463   1.7500   1.7537   1.7573
 CONDUCTIVITY      0.4490   0.4572   0.4653   0.4735   0.4853   0.4919   0.4986   0.5054
 PRANDTL NUMBER    0.7823   0.7864   0.7907   0.7953   0.9294   0.9285   0.9276   0.9267

  WITH FROZEN REACTIONS

 Cp, KJ/(KG)(K)    1.2106   1.2260   1.2421   1.2590   1.7463   1.7500   1.7537   1.7573
 CONDUCTIVITY      0.4490   0.4572   0.4653   0.4735   0.4853   0.4919   0.4986   0.5054
 PRANDTL NUMBER    0.7823   0.7864   0.7907   0.7953   0.9294   0.9285   0.9276   0.9267

 MASS FRACTIONS

 *CO2             0.29078  0.29078  0.29078  0.29078  0.29078  0.29078  0.29078  0.29078
 H2O              0.05327  0.05852  0.06426  0.07053  0.70922  0.70922  0.70922  0.70922
 H2O(L)           0.65595  0.65070  0.64496  0.63869  0.00000  0.00000  0.00000  0.00000

  * THERMODYNAMIC PROPERTIES FITTED TO 20000.K

 NOTE. WEIGHT FRACTION OF FUEL IN TOTAL FUELS AND OF OXIDANT IN TOTAL OXIDANTS

 DERIVATIVE MATRIX SINGULAR (EQLBRM)

 SINGULAR MATRIX, ITERATION  1  VARIABLE  3(EQLBRM)

 SINGULAR MATRIX, ITERATION  2  VARIABLE  3(EQLBRM)

               THERMODYNAMIC EQUILIBRIUM PROPERTIES AT ASSIGNED

                           TEMPERATURE AND PRESSURE

 CASE = cp_80-530bar___

             REACTANT                    WT FRACTION      ENERGY      TEMP
                                          (SEE NOTE)     KJ/KG-MOL      K  
 FUEL        H2O                          1.0000000   -292740.000      0.000
 OXIDANT     CO2                          1.0000000   -393500.000      0.000

 O/F=    0.41000  %FUEL= 70.921986  R,EQ.RATIO= 1.000000  PHI,EQ.RATIO= 0.000000

 THERMODYNAMIC PROPERTIES

 P, BAR            230.00   230.00   230.00   230.00   230.00   230.00   250.00   250.00
 T, K              630.00   636.00   642.00   648.00   654.00   660.00   540.00   546.00
 RHO, KG/CU M    9.5506 1 9.4605 1 9.3721 1 9.2853 1 9.2001 1 9.1165 1 6.9937 2 6.7974 2
 H, KJ/KG        -11568.9 -11558.3 -11547.7 -11537.1 -11526.4 -11515.8 -12986.9 -12959.3
 U, KJ/KG        -11809.7 -11801.4 -11793.1 -11784.8 -11776.4 -11768.1 -13022.7 -12996.0
 G, KJ/KG        -16708.8 -16757.8 -16806.9 -16856.1 -16905.4 -16954.8 -16202.8 -16238.6
 S, KJ/(KG)(K)     8.1587   8.1754   8.1920   8.2084   8.2248   8.2410   5.9552   6.0062

 M, (1/n)          21.751   21.751   21.751   21.751   21.751   21.751  125.602  123.434
 MW, MOL WT        21.751   21.751   21.751   21.751   21.751   21.751   21.751   21.751
 (dLV/dLP)t      -1.00000 -1.00000 -1.00000 -1.00000 -1.00000 -1.00000 -1.20499 -1.22616
 (dLV/dLT)p        1.0000   1.0000   1.0000   1.0000   1.0000   1.0000   2.5158   2.6372
 Cp, KJ/(KG)(K)    1.7610   1.7647   1.7683   1.7720   1.7757   1.7793   4.5582   4.6678
 GAMMAs            1.2773   1.2765   1.2758   1.2751   1.2743   1.2736   0.8984   0.8883
 SON VEL,M/SEC      554.6    557.1    559.5    562.0    564.4    566.9    179.2    180.7

 TRANSPORT PROPERTIES (GASES ONLY)
   CONDUCTIVITY IN UNITS OF MILLIWATTS/(CM)(K)

 VISC,MILLIPOISE  0.26927  0.27201  0.27475  0.27749  0.28023  0.28296  0.26697  0.27022

  WITH EQUILIBRIUM REACTIONS

 Cp, KJ/(KG)(K)    1.7610   1.7647   1.7683   1.7720   1.7757   1.7793   1.1126   1.1232
 CONDUCTIVITY      0.5122   0.5190   0.5258   0.5326   0.5395   0.5464   0.3910   0.3985
 PRANDTL NUMBER    0.9259   0.9250   0.9241   0.9232   0.9223   0.9214   0.7597   0.7616

  WITH FROZEN REACTIONS

 Cp, KJ/(KG)(K)    1.7610   1.7647   1.7683   1.7720   1.7757   1.7793   1.1126   1.1232
 CONDUCTIVITY      0.5122   0.5190   0.5258   0.5326   0.5395   0.5464   0.3910   0.3985
 PRANDTL NUMBER    0.9259   0.9250   0.9241   0.9232   0.9223   0.9214   0.7597   0.7616

 MASS FRACTIONS

 *CO2             0.29078  0.29078  0.29078  0.29078  0.29078  0.29078  0.29078  0.29078
 H2O              0.70922  0.70922  0.70922  0.70922  0.70922  0.70922  0.02440  0.02692
 H2O(L)           0.00000  0.00000  0.00000  0.00000  0.00000  0.00000  0.68482  0.68230

  * THERMODYNAMIC PROPERTIES FITTED TO 20000.K

 NOTE. WEIGHT FRACTION OF FUEL IN TOTAL FUELS AND OF OXIDANT IN TOTAL OXIDANTS

 DERIVATIVE MATRIX SINGULAR (EQLBRM)

 SINGULAR MATRIX, ITERATION  1  VARIABLE  3(EQLBRM)

 DERIVATIVE MATRIX SINGULAR (EQLBRM)

 SINGULAR MATRIX, ITERATION  1  VARIABLE  3(EQLBRM)

               THERMODYNAMIC EQUILIBRIUM PROPERTIES AT ASSIGNED

                           TEMPERATURE AND PRESSURE

 CASE = cp_80-530bar___

             REACTANT                    WT FRACTION      ENERGY      TEMP
                                          (SEE NOTE)     KJ/KG-MOL      K  
 FUEL        H2O                          1.0000000   -292740.000      0.000
 OXIDANT     CO2                          1.0000000   -393500.000      0.000

 O/F=    0.41000  %FUEL= 70.921986  R,EQ.RATIO= 1.000000  PHI,EQ.RATIO= 0.000000

 THERMODYNAMIC PROPERTIES

 P, BAR            250.00   250.00   250.00   250.00   250.00   250.00   250.00   250.00
 T, K              552.00   558.00   564.00   570.00   576.00   582.00   588.00   594.00
 RHO, KG/CU M    6.5998 2 6.4008 2 6.2006 2 5.9995 2 5.7976 2 5.5952 2 5.3927 2 5.1903 2
 H, KJ/KG        -12930.9 -12901.8 -12871.8 -12840.9 -12809.0 -12775.8 -12741.4 -12705.4
 U, KJ/KG        -12968.8 -12940.8 -12912.1 -12882.6 -12852.1 -12820.5 -12787.7 -12753.6
 G, KJ/KG        -16274.8 -16311.3 -16348.1 -16385.3 -16422.8 -16460.6 -16498.7 -16537.3
 S, KJ/(KG)(K)     6.0578   6.1103   6.1637   6.2182   6.2740   6.3312   6.3901   6.4510

 M, (1/n)         121.161  118.785  116.308  113.733  111.063  108.303  105.458  102.535
 MW, MOL WT        21.751   21.751   21.751   21.751   21.751   21.751   21.751   21.751
 (dLV/dLP)t      -1.00000 -1.27414 -1.30128 -1.00000 -1.36274 -1.39747  0.00000 -1.47607
 (dLV/dLT)p        1.0000   2.9001   3.0422   1.0000   3.3476   3.5108   1.0000   3.8569
 Cp, KJ/(KG)(K)    3.9300   4.9213   5.0693   4.1734   5.4203   5.6290   7.8886   6.1280
 GAMMAs            1.0178   0.8662   0.8541   1.0178   0.8278   0.8134-100.0562   0.7817
 SON VEL,M/SEC      196.4    183.9    185.6    205.9    188.9    190.6     -nan    194.0

 TRANSPORT PROPERTIES (GASES ONLY)
   CONDUCTIVITY IN UNITS OF MILLIWATTS/(CM)(K)

 VISC,MILLIPOISE  0.27347  0.27672  0.27996  0.28319  0.28639  0.28956  0.29269  0.29576

  WITH EQUILIBRIUM REACTIONS

 Cp, KJ/(KG)(K)    1.1342   1.1457   1.1577   1.1701   1.1831   1.1966   1.2107   1.2253
 CONDUCTIVITY      0.4062   0.4140   0.4218   0.4298   0.4378   0.4458   0.4539   0.4620
 PRANDTL NUMBER    0.7636   0.7658   0.7683   0.7710   0.7740   0.7772   0.7807   0.7844

  WITH FROZEN REACTIONS

 Cp, KJ/(KG)(K)    1.1342   1.1457   1.1577   1.1701   1.1831   1.1966   1.2107   1.2253
 CONDUCTIVITY      0.4062   0.4140   0.4218   0.4298   0.4378   0.4458   0.4539   0.4620
 PRANDTL NUMBER    0.7636   0.7658   0.7683   0.7710   0.7740   0.7772   0.7807   0.7844

 MASS FRACTIONS

 *CO2             0.29078  0.29078  0.29078  0.29078  0.29078  0.29078  0.29078  0.29078
 H2O              0.02966  0.03263  0.03586  0.03937  0.04318  0.04731  0.05180  0.05667
 H2O(L)           0.67956  0.67659  0.67336  0.66985  0.66604  0.66191  0.65742  0.65255

  * THERMODYNAMIC PROPERTIES FITTED TO 20000.K

 NOTE. WEIGHT FRACTION OF FUEL IN TOTAL FUELS AND OF OXIDANT IN TOTAL OXIDANTS

 REMOVE  H2O(L)         

               THERMODYNAMIC EQUILIBRIUM PROPERTIES AT ASSIGNED

                           TEMPERATURE AND PRESSURE

 CASE = cp_80-530bar___

             REACTANT                    WT FRACTION      ENERGY      TEMP
                                          (SEE NOTE)     KJ/KG-MOL      K  
 FUEL        H2O                          1.0000000   -292740.000      0.000
 OXIDANT     CO2                          1.0000000   -393500.000      0.000

 O/F=    0.41000  %FUEL= 70.921986  R,EQ.RATIO= 1.000000  PHI,EQ.RATIO= 0.000000

 THERMODYNAMIC PROPERTIES

 P, BAR            250.00   250.00   250.00   250.00   250.00   250.00   250.00   250.00
 T, K              600.00   606.00   612.00   618.00   624.00   630.00   636.00   642.00
 RHO, KG/CU M    4.9884 2 1.0792 2 1.0686 2 1.0583 2 1.0481 2 1.0381 2 1.0283 2 1.0187 2
 H, KJ/KG        -12667.8 -11611.0 -11600.5 -11590.0 -11579.4 -11568.9 -11558.3 -11547.7
 U, KJ/KG        -12717.9 -11842.6 -11834.4 -11826.2 -11818.0 -11809.7 -11801.4 -11793.1
 G, KJ/KG        -16576.2 -16494.5 -16542.9 -16591.4 -16640.0 -16688.7 -16737.6 -16786.5
 S, KJ/(KG)(K)     6.5140   8.0587   8.0759   8.0930   8.1099   8.1268   8.1435   8.1601

 M, (1/n)          99.543   21.751   21.751   21.751   21.751   21.751   21.751   21.751
 MW, MOL WT        21.751   21.751   21.751   21.751   21.751   21.751   21.751   21.751
 (dLV/dLP)t      -1.52045 -1.00000 -1.00000 -1.00000 -1.00000 -1.00000 -1.00000 -1.00000
 (dLV/dLT)p        4.0382   1.0000   1.0000   1.0000   1.0000   1.0000   1.0000   1.0000
 Cp, KJ/(KG)(K)    6.4248   1.7463   1.7500   1.7537   1.7573   1.7610   1.7647   1.7683
 GAMMAs            0.7643   1.2802   1.2795   1.2787   1.2780   1.2773   1.2765   1.2758
 SON VEL,M/SEC      195.7    544.6    547.1    549.6    552.1    554.6    557.1    559.5

 TRANSPORT PROPERTIES (GASES ONLY)
   CONDUCTIVITY IN UNITS OF MILLIWATTS/(CM)(K)

 VISC,MILLIPOISE  0.29877  0.25825  0.26101  0.26376  0.26652  0.26927  0.27201  0.27475

  WITH EQUILIBRIUM REACTIONS

 Cp, KJ/(KG)(K)    1.2405   1.7463   1.7500   1.7537   1.7573   1.7610   1.7647   1.7683
 CONDUCTIVITY      0.4702   0.4853   0.4919   0.4986   0.5054   0.5122   0.5190   0.5258
 PRANDTL NUMBER    0.7883   0.9294   0.9285   0.9276   0.9267   0.9259   0.9250   0.9241

  WITH FROZEN REACTIONS

 Cp, KJ/(KG)(K)    1.2405   1.7463   1.7500   1.7537   1.7573   1.7610   1.7647   1.7683
 CONDUCTIVITY      0.4702   0.4853   0.4919   0.4986   0.5054   0.5122   0.5190   0.5258
 PRANDTL NUMBER    0.7883   0.9294   0.9285   0.9276   0.9267   0.9259   0.9250   0.9241

 MASS FRACTIONS

 *CO2             0.29078  0.29078  0.29078  0.29078  0.29078  0.29078  0.29078  0.29078
 H2O              0.06195  0.70922  0.70922  0.70922  0.70922  0.70922  0.70922  0.70922
 H2O(L)           0.64727  0.00000  0.00000  0.00000  0.00000  0.00000  0.00000  0.00000

  * THERMODYNAMIC PROPERTIES FITTED TO 20000.K

 NOTE. WEIGHT FRACTION OF FUEL IN TOTAL FUELS AND OF OXIDANT IN TOTAL OXIDANTS

 SINGULAR MATRIX, ITERATION  2  VARIABLE  3(EQLBRM)

 SINGULAR MATRIX, ITERATION  2  VARIABLE  3(EQLBRM)

               THERMODYNAMIC EQUILIBRIUM PROPERTIES AT ASSIGNED

                           TEMPERATURE AND PRESSURE

 CASE = cp_80-530bar___

             REACTANT                    WT FRACTION      ENERGY      TEMP
                                          (SEE NOTE)     KJ/KG-MOL      K  
 FUEL        H2O                          1.0000000   -292740.000      0.000
 OXIDANT     CO2                          1.0000000   -393500.000      0.000

 O/F=    0.41000  %FUEL= 70.921986  R,EQ.RATIO= 1.000000  PHI,EQ.RATIO= 0.000000

 THERMODYNAMIC PROPERTIES

 P, BAR            250.00   250.00   250.00   270.00   270.00   270.00   270.00   270.00
 T, K              648.00   654.00   660.00   540.00   546.00   552.00   558.00   564.00
 RHO, KG/CU M    1.0093 2 1.0000 2 9.9092 1 7.6679 2 7.4642 2 7.2593 2 7.0532 2 6.8461 2
 H, KJ/KG        -11537.1 -11526.4 -11515.8 -12990.9 -12963.7 -12935.8 -12907.2 -12877.8
 U, KJ/KG        -11784.8 -11776.4 -11768.1 -13026.1 -12999.8 -12973.0 -12945.5 -12917.2
 G, KJ/KG        -16835.5 -16884.6 -16933.8 -16200.0 -16235.8 -16271.9 -16308.4 -16345.1
 S, KJ/(KG)(K)     8.1765   8.1929   8.2091   5.9428   5.9930   6.0438   6.0953   6.1477

 M, (1/n)          21.751   21.751   21.751  127.509  125.502  123.397  121.197  118.904
 MW, MOL WT        21.751   21.751   21.751   21.751   21.751   21.751   21.751   21.751
 (dLV/dLP)t      -1.00000 -1.00000 -1.00000 -1.18696 -1.20596 -1.22652 -1.24878 -1.27288
 (dLV/dLT)p        1.0000   1.0000   1.0000   2.3825   2.4909   2.6048   2.7244   2.8496
 Cp, KJ/(KG)(K)    1.7720   1.7757   1.7793   4.4894   4.5921   4.7049   4.8295   4.9683
 GAMMAs            1.2751   1.2743   1.2736   0.9054   0.8957   0.8855   0.8746   0.8631
 SON VEL,M/SEC      562.0    564.4    566.9    178.5    180.0    181.5    183.0    184.5

 TRANSPORT PROPERTIES (GASES ONLY)
   CONDUCTIVITY IN UNITS OF MILLIWATTS/(CM)(K)

 VISC,MILLIPOISE  0.27749  0.28023  0.28296  0.26638  0.26960  0.27283  0.27606  0.27930

  WITH EQUILIBRIUM REACTIONS

 Cp, KJ/(KG)(K)    1.7720   1.7757   1.7793   1.1067   1.1167   1.1270   1.1378   1.1489
 CONDUCTIVITY      0.5326   0.5395   0.5464   0.3889   0.3963   0.4039   0.4115   0.4192
 PRANDTL NUMBER    0.9232   0.9223   0.9214   0.7580   0.7596   0.7613   0.7633   0.7654

  WITH FROZEN REACTIONS

 Cp, KJ/(KG)(K)    1.7720   1.7757   1.7793   1.1067   1.1167   1.1270   1.1378   1.1489
 CONDUCTIVITY      0.5326   0.5395   0.5464   0.3889   0.3963   0.4039   0.4115   0.4192
 PRANDTL NUMBER    0.9232   0.9223   0.9214   0.7580   0.7596   0.7613   0.7633   0.7654

 MASS FRACTIONS

 *CO2             0.29078  0.29078  0.29078  0.29078  0.29078  0.29078  0.29078  0.29078
 H2O              0.70922  0.70922  0.70922  0.02226  0.02452  0.02696  0.02961  0.03248
 H2O(L)           0.00000  0.00000  0.00000  0.68696  0.68470  0.68226  0.67961  0.67674

  * THERMODYNAMIC PROPERTIES FITTED TO 20000.K

 NOTE. WEIGHT FRACTION OF FUEL IN TOTAL FUELS AND OF OXIDANT IN TOTAL OXIDANTS

 DERIVATIVE MATRIX SINGULAR (EQLBRM)

 SINGULAR MATRIX, ITERATION  1  VARIABLE  3(EQLBRM)
 REMOVE  H2O(L)         

               THERMODYNAMIC EQUILIBRIUM PROPERTIES AT ASSIGNED

                           TEMPERATURE AND PRESSURE

 CASE = cp_80-530bar___

             REACTANT                    WT FRACTION      ENERGY      TEMP
                                          (SEE NOTE)     KJ/KG-MOL      K  
 FUEL        H2O                          1.0000000   -292740.000      0.000
 OXIDANT     CO2                          1.0000000   -393500.000      0.000

 O/F=    0.41000  %FUEL= 70.921986  R,EQ.RATIO= 1.000000  PHI,EQ.RATIO= 0.000000

 THERMODYNAMIC PROPERTIES

 P, BAR            270.00   270.00   270.00   270.00   270.00   270.00   270.00   270.00
 T, K              570.00   576.00   582.00   588.00   594.00   600.00   606.00   612.00
 RHO, KG/CU M    6.6382 2 6.4297 2 6.2208 2 6.0118 2 5.8032 2 5.5952 2 1.1656 2 1.1541 2
 H, KJ/KG        -12847.5 -12816.3 -12783.9 -12750.3 -12715.2 -12678.6 -11611.0 -11600.5
 U, KJ/KG        -12888.2 -12858.3 -12827.3 -12795.2 -12761.8 -12726.9 -11842.6 -11834.4
 G, KJ/KG        -16382.1 -16419.5 -16457.2 -16495.2 -16533.6 -16572.4 -16476.7 -16524.9
 S, KJ/(KG)(K)     6.2011   6.2556   6.3115   6.3690   6.4283   6.4896   8.0293   8.0465

 M, (1/n)         116.519  114.047  111.491  108.857  106.151  103.381   21.751   21.751
 MW, MOL WT        21.751   21.751   21.751   21.751   21.751   21.751   21.751   21.751
 (dLV/dLP)t      -1.00000 -1.32708 -1.35750 -1.39035 -1.42579 -1.46401 -1.00000 -1.00000
 (dLV/dLT)p        1.0000   3.1168   3.2584   3.4047   3.5551   3.7087   1.0000   1.0000
 Cp, KJ/(KG)(K)    4.1872   5.2979   5.4945   5.7162   5.9664   6.2483   1.7463   1.7500
 GAMMAs            1.0173   0.8379   0.8241   0.8094   0.7937   0.7770   1.2802   1.2795
 SON VEL,M/SEC      203.4    187.6    189.1    190.7    192.2    193.6    544.6    547.1

 TRANSPORT PROPERTIES (GASES ONLY)
   CONDUCTIVITY IN UNITS OF MILLIWATTS/(CM)(K)

 VISC,MILLIPOISE  0.28253  0.28574  0.28893  0.29210  0.29523  0.29830  0.25825  0.26101

  WITH EQUILIBRIUM REACTIONS

 Cp, KJ/(KG)(K)    1.1605   1.1726   1.1851   1.1981   1.2115   1.2255   1.7463   1.7500
 CONDUCTIVITY      0.4270   0.4349   0.4429   0.4509   0.4589   0.4670   0.4853   0.4919
 PRANDTL NUMBER    0.7678   0.7703   0.7731   0.7761   0.7793   0.7828   0.9294   0.9285

  WITH FROZEN REACTIONS

 Cp, KJ/(KG)(K)    1.1605   1.1726   1.1851   1.1981   1.2115   1.2255   1.7463   1.7500
 CONDUCTIVITY      0.4270   0.4349   0.4429   0.4509   0.4589   0.4670   0.4853   0.4919
 PRANDTL NUMBER    0.7678   0.7703   0.7731   0.7761   0.7793   0.7828   0.9294   0.9285

 MASS FRACTIONS

 *CO2             0.29078  0.29078  0.29078  0.29078  0.29078  0.29078  0.29078  0.29078
 H2O              0.03558  0.03893  0.04255  0.04646  0.05068  0.05523  0.70922  0.70922
 H2O(L)           0.67364  0.67029  0.66667  0.66276  0.65854  0.65399  0.00000  0.00000

  * THERMODYNAMIC PROPERTIES FITTED TO 20000.K

 NOTE. WEIGHT FRACTION OF FUEL IN TOTAL FUELS AND OF OXIDANT IN TOTAL OXIDANTS

               THERMODYNAMIC EQUILIBRIUM PROPERTIES AT ASSIGNED

                           TEMPERATURE AND PRESSURE

 CASE = cp_80-530bar___

             REACTANT                    WT FRACTION      ENERGY      TEMP
                                          (SEE NOTE)     KJ/KG-MOL      K  
 FUEL        H2O                          1.0000000   -292740.000      0.000
 OXIDANT     CO2                          1.0000000   -393500.000      0.000

 O/F=    0.41000  %FUEL= 70.921986  R,EQ.RATIO= 1.000000  PHI,EQ.RATIO= 0.000000

 THERMODYNAMIC PROPERTIES

 P, BAR            270.00   270.00   270.00   270.00   270.00   270.00   270.00   270.00
 T, K              618.00   624.00   630.00   636.00   642.00   648.00   654.00   660.00
 RHO, KG/CU M    1.1429 2 1.1319 2 1.1212 2 1.1106 2 1.1002 2 1.0900 2 1.0800 2 1.0702 2
 H, KJ/KG        -11590.0 -11579.4 -11568.9 -11558.3 -11547.7 -11537.1 -11526.4 -11515.8
 U, KJ/KG        -11826.2 -11818.0 -11809.7 -11801.4 -11793.1 -11784.8 -11776.4 -11768.1
 G, KJ/KG        -16573.2 -16621.7 -16670.2 -16718.8 -16767.6 -16816.4 -16865.3 -16914.4
 S, KJ/(KG)(K)     8.0636   8.0805   8.0974   8.1141   8.1307   8.1471   8.1635   8.1797

 M, (1/n)          21.751   21.751   21.751   21.751   21.751   21.751   21.751   21.751
 MW, MOL WT        21.751   21.751   21.751   21.751   21.751   21.751   21.751   21.751
 (dLV/dLP)t      -1.00000 -1.00000 -1.00000 -1.00000 -1.00000 -1.00000 -1.00000 -1.00000
 (dLV/dLT)p        1.0000   1.0000   1.0000   1.0000   1.0000   1.0000   1.0000   1.0000
 Cp, KJ/(KG)(K)    1.7537   1.7573   1.7610   1.7647   1.7683   1.7720   1.7757   1.7793
 GAMMAs            1.2787   1.2780   1.2773   1.2765   1.2758   1.2751   1.2743   1.2736
 SON VEL,M/SEC      549.6    552.1    554.6    557.1    559.5    562.0    564.4    566.9

 TRANSPORT PROPERTIES (GASES ONLY)
   CONDUCTIVITY IN UNITS OF MILLIWATTS/(CM)(K)

 VISC,MILLIPOISE  0.26376  0.26652  0.26927  0.27201  0.27475  0.27749  0.28023  0.28296

  WITH EQUILIBRIUM REACTIONS

 Cp, KJ/(KG)(K)    1.7537   1.7573   1.7610   1.7647   1.7683   1.7720   1.7757   1.7793
 CONDUCTIVITY      0.4986   0.5054   0.5122   0.5190   0.5258   0.5326   0.5395   0.5464
 PRANDTL NUMBER    0.9276   0.9267   0.9259   0.9250   0.9241   0.9232   0.9223   0.9214

  WITH FROZEN REACTIONS

 Cp, KJ/(KG)(K)    1.7537   1.7573   1.7610   1.7647   1.7683   1.7720   1.7757   1.7793
 CONDUCTIVITY      0.4986   0.5054   0.5122   0.5190   0.5258   0.5326   0.5395   0.5464
 PRANDTL NUMBER    0.9276   0.9267   0.9259   0.9250   0.9241   0.9232   0.9223   0.9214

 MASS FRACTIONS

 *CO2             0.29078  0.29078  0.29078  0.29078  0.29078  0.29078  0.29078  0.29078
 H2O              0.70922  0.70922  0.70922  0.70922  0.70922  0.70922  0.70922  0.70922

  * THERMODYNAMIC PROPERTIES FITTED TO 20000.K

 NOTE. WEIGHT FRACTION OF FUEL IN TOTAL FUELS AND OF OXIDANT IN TOTAL OXIDANTS

 SINGULAR MATRIX, ITERATION  2  VARIABLE  3(EQLBRM)

 SINGULAR MATRIX, ITERATION  2  VARIABLE  3(EQLBRM)

 DERIVATIVE MATRIX SINGULAR (EQLBRM)

 SINGULAR MATRIX, ITERATION  1  VARIABLE  3(EQLBRM)

               THERMODYNAMIC EQUILIBRIUM PROPERTIES AT ASSIGNED

                           TEMPERATURE AND PRESSURE

 CASE = cp_80-530bar___

             REACTANT                    WT FRACTION      ENERGY      TEMP
                                          (SEE NOTE)     KJ/KG-MOL      K  
 FUEL        H2O                          1.0000000   -292740.000      0.000
 OXIDANT     CO2                          1.0000000   -393500.000      0.000

 O/F=    0.41000  %FUEL= 70.921986  R,EQ.RATIO= 1.000000  PHI,EQ.RATIO= 0.000000

 THERMODYNAMIC PROPERTIES

 P, BAR            290.00   290.00   290.00   290.00   290.00   290.00   290.00   290.00
 T, K              540.00   546.00   552.00   558.00   564.00   570.00   576.00   582.00
 RHO, KG/CU M    8.3420 2 8.1310 2 7.9188 2 7.7056 2 7.4916 2 7.2769 2 7.0617 2 6.8463 2
 H, KJ/KG        -12994.2 -12967.3 -12939.8 -12911.6 -12882.7 -12853.0 -12822.3 -12790.5
 U, KJ/KG        -13029.0 -13003.0 -12976.4 -12949.3 -12921.4 -12892.8 -12863.3 -12832.9
 G, KJ/KG        -16197.5 -16233.3 -16269.3 -16305.6 -16342.3 -16379.2 -16416.5 -16454.1
 S, KJ/(KG)(K)     5.9321   5.9816   6.0317   6.0824   6.1340   6.1865   6.2401   6.2949

 M, (1/n)         129.153  127.284  125.325  123.277  121.141  118.921  116.619  114.240
 MW, MOL WT        21.751   21.751   21.751   21.751   21.751   21.751   21.751   21.751
 (dLV/dLP)t      -1.17185 -1.18907 -1.20766 -1.22772 -1.24936 -1.00000 -1.29780 -1.32484
 (dLV/dLT)p        2.2708   2.3686   2.4712   2.5784   2.6902   1.0000   2.9273   3.0520
 Cp, KJ/(KG)(K)    4.4333   4.5306   4.6376   4.7559   4.8878   4.1987   5.2019   5.3897
 GAMMAs            0.9116   0.9024   0.8926   0.8823   0.8713   1.0169   0.8472   0.8340
 SON VEL,M/SEC      178.0    179.4    180.8    182.2    183.6    201.3    186.5    188.0

 TRANSPORT PROPERTIES (GASES ONLY)
   CONDUCTIVITY IN UNITS OF MILLIWATTS/(CM)(K)

 VISC,MILLIPOISE  0.26585  0.26904  0.27224  0.27545  0.27867  0.28189  0.28511  0.28831

  WITH EQUILIBRIUM REACTIONS

 Cp, KJ/(KG)(K)    1.1017   1.1111   1.1209   1.1310   1.1415   1.1524   1.1637   1.1754
 CONDUCTIVITY      0.3871   0.3944   0.4018   0.4093   0.4169   0.4246   0.4324   0.4402
 PRANDTL NUMBER    0.7566   0.7580   0.7595   0.7612   0.7631   0.7651   0.7673   0.7698

  WITH FROZEN REACTIONS

 Cp, KJ/(KG)(K)    1.1017   1.1111   1.1209   1.1310   1.1415   1.1524   1.1637   1.1754
 CONDUCTIVITY      0.3871   0.3944   0.4018   0.4093   0.4169   0.4246   0.4324   0.4402
 PRANDTL NUMBER    0.7566   0.7580   0.7595   0.7612   0.7631   0.7651   0.7673   0.7698

 MASS FRACTIONS

 *CO2             0.29078  0.29078  0.29078  0.29078  0.29078  0.29078  0.29078  0.29078
 H2O              0.02046  0.02250  0.02472  0.02711  0.02968  0.03246  0.03545  0.03867
 H2O(L)           0.68876  0.68672  0.68450  0.68211  0.67954  0.67676  0.67377  0.67055

  * THERMODYNAMIC PROPERTIES FITTED TO 20000.K

 NOTE. WEIGHT FRACTION OF FUEL IN TOTAL FUELS AND OF OXIDANT IN TOTAL OXIDANTS

 DERIVATIVE MATRIX SINGULAR (EQLBRM)

 SINGULAR MATRIX, ITERATION  1  VARIABLE  3(EQLBRM)
 REMOVE  H2O(L)         

 SINGULAR MATRIX, ITERATION  6  VARIABLE  3(EQLBRM)

               THERMODYNAMIC EQUILIBRIUM PROPERTIES AT ASSIGNED

                           TEMPERATURE AND PRESSURE

 CASE = cp_80-530bar___

             REACTANT                    WT FRACTION      ENERGY      TEMP
                                          (SEE NOTE)     KJ/KG-MOL      K  
 FUEL        H2O                          1.0000000   -292740.000      0.000
 OXIDANT     CO2                          1.0000000   -393500.000      0.000

 O/F=    0.41000  %FUEL= 70.921986  R,EQ.RATIO= 1.000000  PHI,EQ.RATIO= 0.000000

 THERMODYNAMIC PROPERTIES

 P, BAR            290.00   290.00   290.00   290.00   290.00   290.00   290.00   290.00
 T, K              588.00   594.00   600.00   606.00   612.00   618.00   624.00   630.00
 RHO, KG/CU M    6.6310 2 6.4161 2 6.2020 2 1.2519 2 1.2396 2 1.2276 2 1.2158 2 1.2042 2
 H, KJ/KG        -12757.5 -12723.2 -12687.4 -11611.0 -11600.5 -11590.0 -11579.4 -11568.9
 U, KJ/KG        -12801.3 -12768.4 -12734.1 -11842.6 -11834.4 -11826.2 -11818.0 -11809.7
 G, KJ/KG        -16492.1 -16530.4 -16569.0 -16460.1 -16508.2 -16556.4 -16604.6 -16653.0
 S, KJ/(KG)(K)     6.3513   6.4093   6.4694   8.0019   8.0192   8.0363   8.0532   8.0700

 M, (1/n)         111.788  109.268  106.689   21.751   21.751   21.751   21.751   21.751
 MW, MOL WT        21.751   21.751   21.751   21.751   21.751   21.751   21.751   21.751
 (dLV/dLP)t      -1.00000 -1.38511 -1.41861 -1.00000 -1.00000 -1.00000 -1.00000 -1.00000
 (dLV/dLT)p        1.0000   3.3110   3.4437   1.0000   1.0000   1.0000   1.0000   1.0000
 Cp, KJ/(KG)(K)    4.6034   5.8429   6.1151   1.7463   1.7500   1.7537   1.7573   1.7610
 GAMMAs            1.0164   0.8049   0.7890   1.2802   1.2795   1.2787   1.2780   1.2773
 SON VEL,M/SEC      210.8    190.7    192.1    544.6    547.1    549.6    552.1    554.6

 TRANSPORT PROPERTIES (GASES ONLY)
   CONDUCTIVITY IN UNITS OF MILLIWATTS/(CM)(K)

 VISC,MILLIPOISE  0.29149  0.29464  0.29776  0.25825  0.26101  0.26376  0.26652  0.26927

  WITH EQUILIBRIUM REACTIONS

 Cp, KJ/(KG)(K)    1.1875   1.2000   1.2129   1.7463   1.7500   1.7537   1.7573   1.7610
 CONDUCTIVITY      0.4481   0.4561   0.4641   0.4853   0.4919   0.4986   0.5054   0.5122
 PRANDTL NUMBER    0.7724   0.7752   0.7782   0.9294   0.9285   0.9276   0.9267   0.9259

  WITH FROZEN REACTIONS

 Cp, KJ/(KG)(K)    1.1875   1.2000   1.2129   1.7463   1.7500   1.7537   1.7573   1.7610
 CONDUCTIVITY      0.4481   0.4561   0.4641   0.4853   0.4919   0.4986   0.5054   0.5122
 PRANDTL NUMBER    0.7724   0.7752   0.7782   0.9294   0.9285   0.9276   0.9267   0.9259

 MASS FRACTIONS

 *CO2             0.29078  0.29078  0.29078  0.29078  0.29078  0.29078  0.29078  0.29078
 H2O              0.04213  0.04584  0.04983  0.70922  0.70922  0.70922  0.70922  0.70922
 H2O(L)           0.66709  0.66338  0.65939  0.00000  0.00000  0.00000  0.00000  0.00000

  * THERMODYNAMIC PROPERTIES FITTED TO 20000.K

 NOTE. WEIGHT FRACTION OF FUEL IN TOTAL FUELS AND OF OXIDANT IN TOTAL OXIDANTS

 SINGULAR MATRIX, ITERATION  2  VARIABLE  3(EQLBRM)

               THERMODYNAMIC EQUILIBRIUM PROPERTIES AT ASSIGNED

                           TEMPERATURE AND PRESSURE

 CASE = cp_80-530bar___

             REACTANT                    WT FRACTION      ENERGY      TEMP
                                          (SEE NOTE)     KJ/KG-MOL      K  
 FUEL        H2O                          1.0000000   -292740.000      0.000
 OXIDANT     CO2                          1.0000000   -393500.000      0.000

 O/F=    0.41000  %FUEL= 70.921986  R,EQ.RATIO= 1.000000  PHI,EQ.RATIO= 0.000000

 THERMODYNAMIC PROPERTIES

 P, BAR            290.00   290.00   290.00   290.00   290.00   310.00   310.00   310.00
 T, K              636.00   642.00   648.00   654.00   660.00   540.00   546.00   552.00
 RHO, KG/CU M    1.1928 2 1.1817 2 1.1708 2 1.1600 2 1.1495 2 9.0162 2 8.7978 2 8.5784 2
 H, KJ/KG        -11558.3 -11547.7 -11537.1 -11526.4 -11515.8 -12997.0 -12970.4 -12943.2
 U, KJ/KG        -11801.4 -11793.1 -11784.8 -11776.4 -11768.1 -13031.4 -13005.7 -12979.4
 G, KJ/KG        -16701.5 -16750.1 -16798.7 -16847.5 -16896.3 -16195.2 -16230.9 -16266.9
 S, KJ/(KG)(K)     8.0868   8.1034   8.1198   8.1362   8.1524   5.9226   5.9715   6.0211

 M, (1/n)          21.751   21.751   21.751   21.751   21.751  130.585  128.837  127.004
 MW, MOL WT        21.751   21.751   21.751   21.751   21.751   21.751   21.751   21.751
 (dLV/dLP)t      -1.00000 -1.00000 -1.00000 -1.00000 -1.00000 -1.15900 -1.17474 -1.19169
 (dLV/dLT)p        1.0000   1.0000   1.0000   1.0000   1.0000   2.1758   2.2649   2.3581
 Cp, KJ/(KG)(K)    1.7647   1.7683   1.7720   1.7757   1.7793   4.3866   4.4798   4.5822
 GAMMAs            1.2765   1.2758   1.2751   1.2743   1.2736   0.9172   0.9084   0.8991
 SON VEL,M/SEC      557.1    559.5    562.0    564.4    566.9    177.6    178.9    180.3

 TRANSPORT PROPERTIES (GASES ONLY)
   CONDUCTIVITY IN UNITS OF MILLIWATTS/(CM)(K)

 VISC,MILLIPOISE  0.27201  0.27475  0.27749  0.28023  0.28296  0.26536  0.26852  0.27170

  WITH EQUILIBRIUM REACTIONS

 Cp, KJ/(KG)(K)    1.7647   1.7683   1.7720   1.7757   1.7793   1.0973   1.1063   1.1156
 CONDUCTIVITY      0.5190   0.5258   0.5326   0.5395   0.5464   0.3854   0.3926   0.3999
 PRANDTL NUMBER    0.9250   0.9241   0.9232   0.9223   0.9214   0.7555   0.7567   0.7580

  WITH FROZEN REACTIONS

 Cp, KJ/(KG)(K)    1.7647   1.7683   1.7720   1.7757   1.7793   1.0973   1.1063   1.1156
 CONDUCTIVITY      0.5190   0.5258   0.5326   0.5395   0.5464   0.3854   0.3926   0.3999
 PRANDTL NUMBER    0.9250   0.9241   0.9232   0.9223   0.9214   0.7555   0.7567   0.7580

 MASS FRACTIONS

 *CO2             0.29078  0.29078  0.29078  0.29078  0.29078  0.29078  0.29078  0.29078
 H2O              0.70922  0.70922  0.70922  0.70922  0.70922  0.01893  0.02080  0.02282
 H2O(L)           0.00000  0.00000  0.00000  0.00000  0.00000  0.69029  0.68842  0.68640

  * THERMODYNAMIC PROPERTIES FITTED TO 20000.K

 NOTE. WEIGHT FRACTION OF FUEL IN TOTAL FUELS AND OF OXIDANT IN TOTAL OXIDANTS

 SINGULAR MATRIX, ITERATION  2  VARIABLE  3(EQLBRM)

 DERIVATIVE MATRIX SINGULAR (EQLBRM)

 SINGULAR MATRIX, ITERATION  1  VARIABLE  3(EQLBRM)

 DERIVATIVE MATRIX SINGULAR (EQLBRM)

 SINGULAR MATRIX, ITERATION  1  VARIABLE  3(EQLBRM)

               THERMODYNAMIC EQUILIBRIUM PROPERTIES AT ASSIGNED

                           TEMPERATURE AND PRESSURE

 CASE = cp_80-530bar___

             REACTANT                    WT FRACTION      ENERGY      TEMP
                                          (SEE NOTE)     KJ/KG-MOL      K  
 FUEL        H2O                          1.0000000   -292740.000      0.000
 OXIDANT     CO2                          1.0000000   -393500.000      0.000

 O/F=    0.41000  %FUEL= 70.921986  R,EQ.RATIO= 1.000000  PHI,EQ.RATIO= 0.000000

 THERMODYNAMIC PROPERTIES

 P, BAR            310.00   310.00   310.00   310.00   310.00   310.00   310.00   310.00
 T, K              558.00   564.00   570.00   576.00   582.00   588.00   594.00   600.00
 RHO, KG/CU M    8.3581 2 8.1371 2 7.9156 2 7.6938 2 7.4719 2 7.2501 2 7.0290 2 6.8087 2
 H, KJ/KG        -12915.4 -12886.9 -12857.5 -12827.3 -12796.0 -12763.5 -12729.8 -12694.5
 U, KJ/KG        -12952.5 -12925.0 -12896.7 -12867.6 -12837.5 -12806.3 -12773.9 -12740.1
 G, KJ/KG        -16303.2 -16339.7 -16376.6 -16413.8 -16451.3 -16489.2 -16527.4 -16565.9
 S, KJ/(KG)(K)     6.0712   6.1221   6.1738   6.2267   6.2807   6.3361   6.3932   6.4523

 M, (1/n)         125.088  123.090  121.013  118.860  116.634  114.340  111.983  109.570
 MW, MOL WT        21.751   21.751   21.751   21.751   21.751   21.751   21.751   21.751
 (dLV/dLP)t      -1.20994 -1.22958 -1.00000 -1.27334 -1.29764 -1.00000 -1.35153 -1.38130
 (dLV/dLT)p        2.4552   2.5562   1.0000   2.7690   2.8802   1.0000   3.1095   3.2259
 Cp, KJ/(KG)(K)    4.6956   4.8222   4.2082   5.1246   5.3061   4.6188   5.7459   6.0113
 GAMMAs            0.8892   0.8787   1.0166   0.8557   0.8430   1.0160   0.8153   0.8000
 SON VEL,M/SEC      181.6    183.0    199.5    185.7    187.0    208.4    189.6    190.9

 TRANSPORT PROPERTIES (GASES ONLY)
   CONDUCTIVITY IN UNITS OF MILLIWATTS/(CM)(K)

 VISC,MILLIPOISE  0.27489  0.27809  0.28129  0.28450  0.28770  0.29088  0.29405  0.29719

  WITH EQUILIBRIUM REACTIONS

 Cp, KJ/(KG)(K)    1.1253   1.1352   1.1455   1.1562   1.1672   1.1785   1.1902   1.2023
 CONDUCTIVITY      0.4073   0.4148   0.4224   0.4300   0.4378   0.4456   0.4535   0.4614
 PRANDTL NUMBER    0.7595   0.7611   0.7629   0.7649   0.7670   0.7693   0.7718   0.7745

  WITH FROZEN REACTIONS

 Cp, KJ/(KG)(K)    1.1253   1.1352   1.1455   1.1562   1.1672   1.1785   1.1902   1.2023
 CONDUCTIVITY      0.4073   0.4148   0.4224   0.4300   0.4378   0.4456   0.4535   0.4614
 PRANDTL NUMBER    0.7595   0.7611   0.7629   0.7649   0.7670   0.7693   0.7718   0.7745

 MASS FRACTIONS

 *CO2             0.29078  0.29078  0.29078  0.29078  0.29078  0.29078  0.29078  0.29078
 H2O              0.02499  0.02733  0.02984  0.03254  0.03543  0.03853  0.04184  0.04539
 H2O(L)           0.68423  0.68189  0.67938  0.67668  0.67379  0.67069  0.66738  0.66383

  * THERMODYNAMIC PROPERTIES FITTED TO 20000.K

 NOTE. WEIGHT FRACTION OF FUEL IN TOTAL FUELS AND OF OXIDANT IN TOTAL OXIDANTS

 REMOVE  H2O(L)         

 SINGULAR MATRIX, ITERATION  6  VARIABLE  3(EQLBRM)

[...]

 THERMODYNAMIC PROPERTIES

 P, BAR            490.00   490.00   490.00   490.00   490.00   490.00   490.00   510.00
 T, K              624.00   630.00   636.00   642.00   648.00   654.00   660.00   540.00
 RHO, KG/CU M    2.0616 2 2.0420 2 2.0227 2 2.0038 2 1.9852 2 1.9670 2 1.9491 2 1.5492 3
 H, KJ/KG        -11558.6 -11548.1 -11537.5 -11527.0 -11516.4 -11505.8 -11495.1 -12981.2
 U, KJ/KG        -11796.3 -11788.0 -11779.8 -11771.5 -11763.2 -11754.9 -11746.5 -13014.1
 G, KJ/KG        -16445.1 -16492.2 -16539.3 -16586.5 -16633.9 -16681.3 -16728.8 -16142.2
 S, KJ/(KG)(K)     7.8310   7.8478   7.8644   7.8810   7.8974   7.9137   7.9299   5.8538

 M, (1/n)          21.829   21.829   21.829   21.829   21.829   21.829   21.829  136.386
 MW, MOL WT        21.829   21.829   21.829   21.829   21.829   21.829   21.829   21.829
 (dLV/dLP)t      -1.00000 -1.00000 -1.00000 -1.00000 -1.00000 -1.00000 -1.00000 -1.09098
 (dLV/dLT)p        1.0000   1.0000   1.0000   1.0000   1.0000   1.0000   1.0000   1.6727
 Cp, KJ/(KG)(K)    1.7526   1.7563   1.7600   1.7636   1.7673   1.7709   1.7746   4.1406
 GAMMAs            1.2777   1.2769   1.2762   1.2755   1.2747   1.2740   1.2733   0.9526
 SON VEL,M/SEC      551.1    553.6    556.0    558.5    560.9    563.4    565.8    177.1

 TRANSPORT PROPERTIES (GASES ONLY)
   CONDUCTIVITY IN UNITS OF MILLIWATTS/(CM)(K)

 VISC,MILLIPOISE  0.26720  0.26995  0.27270  0.27544  0.27819  0.28092  0.28366  0.26227

  WITH EQUILIBRIUM REACTIONS

 Cp, KJ/(KG)(K)    1.7526   1.7563   1.7600   1.7636   1.7673   1.7709   1.7746   1.0736
 CONDUCTIVITY      0.5056   0.5124   0.5192   0.5260   0.5329   0.5397   0.5466   0.3753
 PRANDTL NUMBER    0.9262   0.9253   0.9244   0.9235   0.9226   0.9217   0.9208   0.7502

  WITH FROZEN REACTIONS

 Cp, KJ/(KG)(K)    1.7526   1.7563   1.7600   1.7636   1.7673   1.7709   1.7746   1.0736
 CONDUCTIVITY      0.5056   0.5124   0.5192   0.5260   0.5329   0.5397   0.5466   0.3753
 PRANDTL NUMBER    0.9262   0.9253   0.9244   0.9235   0.9226   0.9217   0.9208   0.7502

 MASS FRACTIONS

 *CO2             0.29577  0.29577  0.29577  0.29577  0.29577  0.29577  0.29577  0.29577
 H2O              0.70423  0.70423  0.70423  0.70423  0.70423  0.70423  0.70423  0.01102
 H2O(L)           0.00000  0.00000  0.00000  0.00000  0.00000  0.00000  0.00000  0.69321

  * THERMODYNAMIC PROPERTIES FITTED TO 20000.K

 NOTE. WEIGHT FRACTION OF FUEL IN TOTAL FUELS AND OF OXIDANT IN TOTAL OXIDANTS

 SINGULAR MATRIX, ITERATION  3  VARIABLE  3(EQLBRM)

 DERIVATIVE MATRIX SINGULAR (EQLBRM)

 SINGULAR MATRIX, ITERATION  1  VARIABLE  3(EQLBRM)

 DERIVATIVE MATRIX SINGULAR (EQLBRM)

 SINGULAR MATRIX, ITERATION  1  VARIABLE  3(EQLBRM)

               THERMODYNAMIC EQUILIBRIUM PROPERTIES AT ASSIGNED

                           TEMPERATURE AND PRESSURE

 CASE = cp_80-530bar___

             REACTANT                    WT FRACTION      ENERGY      TEMP
                                          (SEE NOTE)     KJ/KG-MOL      K  
 FUEL        H2O                          1.0000000   -292740.000      0.000
 OXIDANT     CO2                          1.0000000   -393500.000      0.000

 O/F=    0.42000  %FUEL= 70.422535  R,EQ.RATIO= 1.000000  PHI,EQ.RATIO= 0.000000

 THERMODYNAMIC PROPERTIES

 P, BAR            510.00   510.00   510.00   510.00   510.00   510.00   510.00   510.00
 T, K              546.00   552.00   558.00   564.00   570.00   576.00   582.00   588.00
 RHO, KG/CU M    1.5204 3 1.4917 3 1.4631 3 1.4346 3 1.4061 3 1.3778 3 1.3495 3 1.3215 3
 H, KJ/KG        -12956.1 -12930.6 -12904.5 -12877.8 -12850.5 -12822.3 -12793.3 -12763.3
 U, KJ/KG        -12989.7 -12964.8 -12939.4 -12913.4 -12886.7 -12859.4 -12831.1 -12801.9
 G, KJ/KG        -16177.5 -16213.0 -16248.9 -16285.0 -16321.4 -16358.0 -16395.0 -16432.3
 S, KJ/(KG)(K)     5.9000   5.9465   5.9935   6.0410   6.0893   6.1384   6.1885   6.2399

 M, (1/n)         135.341  134.246  133.101  131.907  130.666  129.379  128.049  126.678
 MW, MOL WT        21.829   21.829   21.829   21.829   21.829   21.829   21.829   21.829
 (dLV/dLP)t      -1.09940 -1.10837 -1.00000 -1.12802 -1.13874 -1.00000 -1.16201 -1.17459
 (dLV/dLT)p        1.7196   1.7678   1.0000   1.8678   1.9192   1.0000   2.0234   2.0755
 Cp, KJ/(KG)(K)    4.2161   4.2998   4.0398   4.4997   4.6205   4.3550   4.9183   5.1023
 GAMMAs            0.9467   0.9404   1.0157   0.9267   0.9191   1.0150   0.9026   0.8935
 SON VEL,M/SEC      178.2    179.3    188.2    181.5    182.6    193.8    184.7    185.7

 TRANSPORT PROPERTIES (GASES ONLY)
   CONDUCTIVITY IN UNITS OF MILLIWATTS/(CM)(K)

 VISC,MILLIPOISE  0.26521  0.26816  0.27114  0.27412  0.27713  0.28014  0.28317  0.28620

  WITH EQUILIBRIUM REACTIONS

 Cp, KJ/(KG)(K)    1.0804   1.0872   1.0942   1.1013   1.1086   1.1160   1.1235   1.1312
 CONDUCTIVITY      0.3817   0.3882   0.3948   0.4014   0.4081   0.4149   0.4218   0.4288
 PRANDTL NUMBER    0.7506   0.7510   0.7515   0.7521   0.7528   0.7535   0.7543   0.7551

  WITH FROZEN REACTIONS

 Cp, KJ/(KG)(K)    1.0804   1.0872   1.0942   1.1013   1.1086   1.1160   1.1235   1.1312
 CONDUCTIVITY      0.3817   0.3882   0.3948   0.4014   0.4081   0.4149   0.4218   0.4288
 PRANDTL NUMBER    0.7506   0.7510   0.7515   0.7521   0.7528   0.7535   0.7543   0.7551

 MASS FRACTIONS

 *CO2             0.29577  0.29577  0.29577  0.29577  0.29577  0.29577  0.29577  0.29577
 H2O              0.01204  0.01312  0.01428  0.01550  0.01680  0.01817  0.01962  0.02114
 H2O(L)           0.69219  0.69110  0.68995  0.68872  0.68743  0.68606  0.68461  0.68309

  * THERMODYNAMIC PROPERTIES FITTED TO 20000.K

 NOTE. WEIGHT FRACTION OF FUEL IN TOTAL FUELS AND OF OXIDANT IN TOTAL OXIDANTS

 DERIVATIVE MATRIX SINGULAR (EQLBRM)

 SINGULAR MATRIX, ITERATION  1  VARIABLE  3(EQLBRM)
 REMOVE  H2O(L)         

               THERMODYNAMIC EQUILIBRIUM PROPERTIES AT ASSIGNED

                           TEMPERATURE AND PRESSURE

 CASE = cp_80-530bar___

             REACTANT                    WT FRACTION      ENERGY      TEMP
                                          (SEE NOTE)     KJ/KG-MOL      K  
 FUEL        H2O                          1.0000000   -292740.000      0.000
 OXIDANT     CO2                          1.0000000   -393500.000      0.000

 O/F=    0.42000  %FUEL= 70.422535  R,EQ.RATIO= 1.000000  PHI,EQ.RATIO= 0.000000

 THERMODYNAMIC PROPERTIES

 P, BAR            510.00   510.00   510.00   510.00   510.00   510.00   510.00   510.00
 T, K              594.00   600.00   606.00   612.00   618.00   624.00   630.00   636.00
 RHO, KG/CU M    1.2936 3 1.2659 3 2.2095 2 2.1878 2 2.1666 2 2.1457 2 2.1253 2 2.1053 2
 H, KJ/KG        -12732.0 -12699.4 -11590.1 -11579.6 -11569.1 -11558.6 -11548.1 -11537.5
 U, KJ/KG        -12771.5 -12739.7 -11820.9 -11812.7 -11804.5 -11796.3 -11788.0 -11779.8
 G, KJ/KG        -16469.9 -16507.8 -16295.4 -16342.0 -16388.8 -16435.6 -16482.6 -16529.6
 S, KJ/(KG)(K)     6.2927   6.3473   7.7646   7.7818   7.7988   7.8157   7.8325   7.8492

 M, (1/n)         125.269  123.827   21.829   21.829   21.829   21.829   21.829   21.829
 MW, MOL WT        21.829   21.829   21.829   21.829   21.829   21.829   21.829   21.829
 (dLV/dLP)t      -1.00000 -1.20162 -1.00000 -1.00000 -1.00000 -1.00000 -1.00000 -1.00000
 (dLV/dLT)p        1.0000   2.1770   1.0000   1.0000   1.0000   1.0000   1.0000   1.0000
 Cp, KJ/(KG)(K)    4.8662   5.5610   1.7416   1.7453   1.7490   1.7526   1.7563   1.7600
 GAMMAs            1.0138   0.8738   1.2799   1.2792   1.2784   1.2777   1.2769   1.2762
 SON VEL,M/SEC      199.9    187.6    543.5    546.1    548.6    551.1    553.6    556.0

 TRANSPORT PROPERTIES (GASES ONLY)
   CONDUCTIVITY IN UNITS OF MILLIWATTS/(CM)(K)

 VISC,MILLIPOISE  0.28925  0.29230  0.25892  0.26168  0.26444  0.26720  0.26995  0.27270

  WITH EQUILIBRIUM REACTIONS

 Cp, KJ/(KG)(K)    1.1391   1.1470   1.7416   1.7453   1.7490   1.7526   1.7563   1.7600
 CONDUCTIVITY      0.4358   0.4429   0.4855   0.4922   0.4989   0.5056   0.5124   0.5192
 PRANDTL NUMBER    0.7560   0.7570   0.9288   0.9279   0.9271   0.9262   0.9253   0.9244

  WITH FROZEN REACTIONS

 Cp, KJ/(KG)(K)    1.1391   1.1470   1.7416   1.7453   1.7490   1.7526   1.7563   1.7600
 CONDUCTIVITY      0.4358   0.4429   0.4855   0.4922   0.4989   0.5056   0.5124   0.5192
 PRANDTL NUMBER    0.7560   0.7570   0.9288   0.9279   0.9271   0.9262   0.9253   0.9244

 MASS FRACTIONS

 *CO2             0.29577  0.29577  0.29577  0.29577  0.29577  0.29577  0.29577  0.29577
 H2O              0.02274  0.02441  0.70423  0.70423  0.70423  0.70423  0.70423  0.70423
 H2O(L)           0.68149  0.67981  0.00000  0.00000  0.00000  0.00000  0.00000  0.00000

  * THERMODYNAMIC PROPERTIES FITTED TO 20000.K

 NOTE. WEIGHT FRACTION OF FUEL IN TOTAL FUELS AND OF OXIDANT IN TOTAL OXIDANTS

 SINGULAR MATRIX, ITERATION  3  VARIABLE  3(EQLBRM)

               THERMODYNAMIC EQUILIBRIUM PROPERTIES AT ASSIGNED

                           TEMPERATURE AND PRESSURE

 CASE = cp_80-530bar___

             REACTANT                    WT FRACTION      ENERGY      TEMP
                                          (SEE NOTE)     KJ/KG-MOL      K  
 FUEL        H2O                          1.0000000   -292740.000      0.000
 OXIDANT     CO2                          1.0000000   -393500.000      0.000

 O/F=    0.42000  %FUEL= 70.422535  R,EQ.RATIO= 1.000000  PHI,EQ.RATIO= 0.000000

 THERMODYNAMIC PROPERTIES

 P, BAR            510.00   510.00   510.00   510.00   530.00   530.00   530.00   530.00
 T, K              642.00   648.00   654.00   660.00   540.00   546.00   552.00   558.00
 RHO, KG/CU M    2.0856 2 2.0663 2 2.0473 2 2.0287 2 1.6155 3 1.5860 3 1.5566 3 1.5273 3
 H, KJ/KG        -11527.0 -11516.4 -11505.8 -11495.1 -12982.0 -12957.0 -12931.6 -12905.6
 U, KJ/KG        -11771.5 -11763.2 -11754.9 -11746.5 -13014.8 -12990.4 -12965.6 -12940.3
 G, KJ/KG        -16576.8 -16624.0 -16671.3 -16718.8 -16141.0 -16176.2 -16211.7 -16247.5
 S, KJ/(KG)(K)     7.8657   7.8822   7.8985   7.9146   5.8499   5.8960   5.9423   5.9892

 M, (1/n)          21.829   21.829   21.829   21.829  136.854  135.848  134.795  133.693
 MW, MOL WT        21.829   21.829   21.829   21.829   21.829   21.829   21.829   21.829
 (dLV/dLP)t      -1.00000 -1.00000 -1.00000 -1.00000 -1.08725 -1.09529 -1.10386 -1.11295
 (dLV/dLT)p        1.0000   1.0000   1.0000   1.0000   1.6451   1.6899   1.7358   1.7829
 Cp, KJ/(KG)(K)    1.7636   1.7673   1.7709   1.7746   4.1286   4.2033   4.2863   4.3793
 GAMMAs            1.2755   1.2747   1.2740   1.2733   0.9547   0.9490   0.9430   0.9365
 SON VEL,M/SEC      558.5    560.9    563.4    565.8    177.0    178.1    179.2    180.3

 TRANSPORT PROPERTIES (GASES ONLY)
   CONDUCTIVITY IN UNITS OF MILLIWATTS/(CM)(K)

 VISC,MILLIPOISE  0.27544  0.27819  0.28092  0.28366  0.26207  0.26499  0.26793  0.27089

  WITH EQUILIBRIUM REACTIONS

 Cp, KJ/(KG)(K)    1.7636   1.7673   1.7709   1.7746   1.0723   1.0789   1.0856   1.0925
 CONDUCTIVITY      0.5260   0.5329   0.5397   0.5466   0.3747   0.3811   0.3875   0.3940
 PRANDTL NUMBER    0.9235   0.9226   0.9217   0.9208   0.7500   0.7503   0.7507   0.7512

  WITH FROZEN REACTIONS

 Cp, KJ/(KG)(K)    1.7636   1.7673   1.7709   1.7746   1.0723   1.0789   1.0856   1.0925
 CONDUCTIVITY      0.5260   0.5329   0.5397   0.5466   0.3747   0.3811   0.3875   0.3940
 PRANDTL NUMBER    0.9235   0.9226   0.9217   0.9208   0.7500   0.7503   0.7507   0.7512

 MASS FRACTIONS

 *CO2             0.29577  0.29577  0.29577  0.29577  0.29577  0.29577  0.29577  0.29577
 H2O              0.70423  0.70423  0.70423  0.70423  0.01056  0.01154  0.01257  0.01368
 H2O(L)           0.00000  0.00000  0.00000  0.00000  0.69366  0.69269  0.69165  0.69055

  * THERMODYNAMIC PROPERTIES FITTED TO 20000.K

 NOTE. WEIGHT FRACTION OF FUEL IN TOTAL FUELS AND OF OXIDANT IN TOTAL OXIDANTS

 SINGULAR MATRIX, ITERATION  2  VARIABLE  3(EQLBRM)

 DERIVATIVE MATRIX SINGULAR (EQLBRM)

 SINGULAR MATRIX, ITERATION  1  VARIABLE  3(EQLBRM)

 DERIVATIVE MATRIX SINGULAR (EQLBRM)

 SINGULAR MATRIX, ITERATION  1  VARIABLE  3(EQLBRM)
 REMOVE  H2O(L)         

 DERIVATIVE MATRIX SINGULAR (EQLBRM)

               THERMODYNAMIC EQUILIBRIUM PROPERTIES AT ASSIGNED

                           TEMPERATURE AND PRESSURE

 CASE = cp_80-530bar___

             REACTANT                    WT FRACTION      ENERGY      TEMP
                                          (SEE NOTE)     KJ/KG-MOL      K  
 FUEL        H2O                          1.0000000   -292740.000      0.000
 OXIDANT     CO2                          1.0000000   -393500.000      0.000

 O/F=    0.42000  %FUEL= 70.422535  R,EQ.RATIO= 1.000000  PHI,EQ.RATIO= 0.000000

 THERMODYNAMIC PROPERTIES

 P, BAR            530.00   530.00   530.00   530.00   530.00   530.00   530.00   530.00
 T, K              564.00   570.00   576.00   582.00   588.00   594.00   600.00   606.00
 RHO, KG/CU M    1.4980 3 1.4689 3 1.4399 3 1.4110 3 1.3823 3 1.3538 3 1.3256 3 2.2961 2
 H, KJ/KG        -12879.0 -12851.7 -12823.7 -12794.8 -12764.8 -12733.7 -12701.2 -11590.1
 U, KJ/KG        -12914.4 -12887.8 -12860.5 -12832.3 -12803.2 -12772.9 -12741.2 -11820.9
 G, KJ/KG        -16283.6 -16320.0 -16356.6 -16393.6 -16430.8 -16468.4 -16506.3 -16286.5
 S, KJ/(KG)(K)     6.0366   6.0846   6.1336   6.1835   6.2347   6.2874   6.3418   7.7499

 M, (1/n)         132.544  131.350  130.112  128.832  127.512  126.157  124.770   21.829
 MW, MOL WT        21.829   21.829   21.829   21.829   21.829   21.829   21.829   21.829
 (dLV/dLP)t      -1.12260 -1.13281 -1.00000 -1.15495 -1.16690 -1.00000 -1.19255 -1.00000
 (dLV/dLT)p        1.8310   1.8799   1.0000   1.9788   2.0282   1.0000   2.1240   1.0000
 Cp, KJ/(KG)(K)    4.4846   4.6046   4.3580   4.9010   5.0844   4.8708   5.5423   1.7416
 GAMMAs            0.9296   0.9223   1.0149   0.9063   0.8975   1.0137   0.8785   1.2799
 SON VEL,M/SEC      181.4    182.4    193.3    184.5    185.5    199.2    187.4    543.5

 TRANSPORT PROPERTIES (GASES ONLY)
   CONDUCTIVITY IN UNITS OF MILLIWATTS/(CM)(K)

 VISC,MILLIPOISE  0.27386  0.27684  0.27984  0.28285  0.28587  0.28890  0.29193  0.25892

  WITH EQUILIBRIUM REACTIONS

 Cp, KJ/(KG)(K)    1.0994   1.1065   1.1138   1.1211   1.1286   1.1363   1.1440   1.7416
 CONDUCTIVITY      0.4005   0.4072   0.4139   0.4208   0.4276   0.4346   0.4416   0.4855
 PRANDTL NUMBER    0.7517   0.7523   0.7530   0.7537   0.7545   0.7553   0.7562   0.9288

  WITH FROZEN REACTIONS

 Cp, KJ/(KG)(K)    1.0994   1.1065   1.1138   1.1211   1.1286   1.1363   1.1440   1.7416
 CONDUCTIVITY      0.4005   0.4072   0.4139   0.4208   0.4276   0.4346   0.4416   0.4855
 PRANDTL NUMBER    0.7517   0.7523   0.7530   0.7537   0.7545   0.7553   0.7562   0.9288

 MASS FRACTIONS

 *CO2             0.29577  0.29577  0.29577  0.29577  0.29577  0.29577  0.29577  0.29577
 H2O              0.01484  0.01608  0.01738  0.01876  0.02021  0.02172  0.02331  0.70423
 H2O(L)           0.68938  0.68815  0.68684  0.68546  0.68402  0.68250  0.68091  0.00000

  * THERMODYNAMIC PROPERTIES FITTED TO 20000.K

 NOTE. WEIGHT FRACTION OF FUEL IN TOTAL FUELS AND OF OXIDANT IN TOTAL OXIDANTS

 DERIVATIVE MATRIX SINGULAR (EQLBRM)

 SINGULAR MATRIX, ITERATION  1  VARIABLE  3(EQLBRM)

               THERMODYNAMIC EQUILIBRIUM PROPERTIES AT ASSIGNED

                           TEMPERATURE AND PRESSURE

 CASE = cp_80-530bar___

             REACTANT                    WT FRACTION      ENERGY      TEMP
                                          (SEE NOTE)     KJ/KG-MOL      K  
 FUEL        H2O                          1.0000000   -292740.000      0.000
 OXIDANT     CO2                          1.0000000   -393500.000      0.000

 O/F=    0.42000  %FUEL= 70.422535  R,EQ.RATIO= 1.000000  PHI,EQ.RATIO= 0.000000

 THERMODYNAMIC PROPERTIES

 P, BAR            530.00   530.00   530.00   530.00   530.00   530.00   530.00   530.00
 T, K              612.00   618.00   624.00   630.00   636.00   642.00   648.00   654.00
 RHO, KG/CU M    2.2736 2 2.2515 2 2.2299 2 2.2087 2 2.1878 2 2.1674 2 2.1473 2 2.1276 2
 H, KJ/KG        -11579.6 -11569.1 -11558.6 -11548.1 -11537.5 -11527.0 -11516.4 -11505.8
 U, KJ/KG        -11812.7 -11804.5 -11796.3 -11788.0 -11779.8 -11771.5 -11763.2 -11754.9
 G, KJ/KG        -16333.1 -16379.7 -16426.5 -16473.3 -16520.3 -16567.3 -16614.5 -16661.8
 S, KJ/(KG)(K)     7.7671   7.7842   7.8011   7.8179   7.8345   7.8511   7.8675   7.8838

 M, (1/n)          21.829   21.829   21.829   21.829   21.829   21.829   21.829   21.829
 MW, MOL WT        21.829   21.829   21.829   21.829   21.829   21.829   21.829   21.829
 (dLV/dLP)t      -1.00000 -1.00000 -1.00000 -1.00000 -1.00000 -1.00000 -1.00000 -1.00000
 (dLV/dLT)p        1.0000   1.0000   1.0000   1.0000   1.0000   1.0000   1.0000   1.0000
 Cp, KJ/(KG)(K)    1.7453   1.7490   1.7526   1.7563   1.7600   1.7636   1.7673   1.7709
 GAMMAs            1.2792   1.2784   1.2777   1.2769   1.2762   1.2755   1.2747   1.2740
 SON VEL,M/SEC      546.1    548.6    551.1    553.6    556.0    558.5    560.9    563.4

 TRANSPORT PROPERTIES (GASES ONLY)
   CONDUCTIVITY IN UNITS OF MILLIWATTS/(CM)(K)

 VISC,MILLIPOISE  0.26168  0.26444  0.26720  0.26995  0.27270  0.27544  0.27819  0.28092

  WITH EQUILIBRIUM REACTIONS

 Cp, KJ/(KG)(K)    1.7453   1.7490   1.7526   1.7563   1.7600   1.7636   1.7673   1.7709
 CONDUCTIVITY      0.4922   0.4989   0.5056   0.5124   0.5192   0.5260   0.5329   0.5397
 PRANDTL NUMBER    0.9279   0.9271   0.9262   0.9253   0.9244   0.9235   0.9226   0.9217

  WITH FROZEN REACTIONS

 Cp, KJ/(KG)(K)    1.7453   1.7490   1.7526   1.7563   1.7600   1.7636   1.7673   1.7709
 CONDUCTIVITY      0.4922   0.4989   0.5056   0.5124   0.5192   0.5260   0.5329   0.5397
 PRANDTL NUMBER    0.9279   0.9271   0.9262   0.9253   0.9244   0.9235   0.9226   0.9217

 MASS FRACTIONS

 *CO2             0.29577  0.29577  0.29577  0.29577  0.29577  0.29577  0.29577  0.29577
 H2O              0.70423  0.70423  0.70423  0.70423  0.70423  0.70423  0.70423  0.70423

  * THERMODYNAMIC PROPERTIES FITTED TO 20000.K

 NOTE. WEIGHT FRACTION OF FUEL IN TOTAL FUELS AND OF OXIDANT IN TOTAL OXIDANTS

               THERMODYNAMIC EQUILIBRIUM PROPERTIES AT ASSIGNED

                           TEMPERATURE AND PRESSURE

 CASE = cp_80-530bar___

             REACTANT                    WT FRACTION      ENERGY      TEMP
                                          (SEE NOTE)     KJ/KG-MOL      K  
 FUEL        H2O                          1.0000000   -292740.000      0.000
 OXIDANT     CO2                          1.0000000   -393500.000      0.000

 O/F=    0.42000  %FUEL= 70.422535  R,EQ.RATIO= 1.000000  PHI,EQ.RATIO= 0.000000

 THERMODYNAMIC PROPERTIES

 P, BAR            530.00
 T, K              660.00
 RHO, KG/CU M    2.1083 2
 H, KJ/KG        -11495.1
 U, KJ/KG        -11746.5
 G, KJ/KG        -16709.1
 S, KJ/(KG)(K)     7.9000

 M, (1/n)          21.829
 MW, MOL WT        21.829
 (dLV/dLP)t      -1.00000
 (dLV/dLT)p        1.0000
 Cp, KJ/(KG)(K)    1.7746
 GAMMAs            1.2733
 SON VEL,M/SEC      565.8

 TRANSPORT PROPERTIES (GASES ONLY)
   CONDUCTIVITY IN UNITS OF MILLIWATTS/(CM)(K)

 VISC,MILLIPOISE  0.28366

  WITH EQUILIBRIUM REACTIONS

 Cp, KJ/(KG)(K)    1.7746
 CONDUCTIVITY      0.5466
 PRANDTL NUMBER    0.9208

  WITH FROZEN REACTIONS

 Cp, KJ/(KG)(K)    1.7746
 CONDUCTIVITY      0.5466
 PRANDTL NUMBER    0.9208

 MASS FRACTIONS

 *CO2             0.29577
 H2O              0.70423

  * THERMODYNAMIC PROPERTIES FITTED TO 20000.K

 NOTE. WEIGHT FRACTION OF FUEL IN TOTAL FUELS AND OF OXIDANT IN TOTAL OXIDANTS